10
Lattice="16.28999089631971 0.0 0.0 0.0 16.28999089631971 0.0 0.0 0.0 34.25627252547053" Properties=species:S:1:pos:R:3:initial_magmoms:R:1 pbc="T T T"
Si      -0.17075178      -0.24632109      -2.29071822       0.00000000
Si       0.35552925      -2.11183560       0.86836274       0.00000000
Si       1.38559482       1.80388944       0.43399296       0.00000000
Si      -2.02468410       0.96120774       0.64230547       0.00000000
Si      -1.50195429       0.47858391       2.88304376       0.00000000
Si       0.08048889       3.25490490      -0.94300720       0.00000000
Si      -2.30870025      -1.50094431      -2.12320496       0.00000000
Si       1.83329289      -1.58060241       2.63064341       0.00000000
Si      -3.55496670      -0.41329359      -0.42638806       0.00000000
Si       0.45460503       2.03468616      -2.97598108       0.00000000
