10
Lattice="16.28999089631971 0.0 0.0 0.0 16.28999089631971 0.0 0.0 0.0 34.25627252547053" Properties=species:S:1:pos:R:3:initial_magmoms:R:1 pbc="T T T"
Si      -0.35552925       2.11183560      -0.86836274       0.00000000
Si      -1.70354304      -1.13424012       1.09109715       0.00000000
Si       0.55760670      -1.31165451      -1.85843808       0.00000000
Si       1.47776364       0.53123319       1.76228067       0.00000000
Si       2.79839394      -1.51032735      -1.42173887       0.00000000
Si      -0.39679182      -2.77382536       2.15218578       0.00000000
Si       1.16457210      -1.28919060       3.19296043       0.00000000
Si       0.48299850       2.46443265       2.67606725       0.00000000
Si      -0.52628103       1.86551451      -3.15908096       0.00000000
Si      -2.68499925       0.45468648       2.57090043       0.00000000
