10
Lattice="16.28999089631971 0.0 0.0 0.0 16.28999089631971 0.0 0.0 0.0 34.25627252547053" Properties=species:S:1:pos:R:3:initial_magmoms:R:1 pbc="T T T"
Si       0.76429422       2.03061366       0.92166553       0.00000000
Si      -2.30052267      -0.19624563       0.49308506       0.00000000
Si       1.30510593      -1.45101546       1.37700016       0.00000000
Si       0.37411614      -1.22021874      -2.03297389       0.00000000
Si      -0.08048889      -3.25490490       0.94300720       0.00000000
Si      -2.10517299      -2.29369716       1.58531267       0.00000000
Si       2.57409693      -0.27735354      -2.40352419       0.00000000
Si      -0.25124067      -3.50122599      -1.34771103       0.00000000
Si      -3.38041935      -0.20986407      -1.65543529       0.00000000
Si      -0.01273878       3.77913339      -0.44659927       0.00000000
