10
Lattice="16.28999089631971 0.0 0.0 0.0 16.28999089631971 0.0 0.0 0.0 34.25627252547053" Properties=species:S:1:pos:R:3:initial_magmoms:R:1 pbc="T T T"
Si      -1.64260215       1.50154704      -0.76888247       0.00000000
Si       1.92472866       0.75098529      -1.16598140       0.00000000
Si      -0.56312901      -2.17624626      -0.76566238       0.00000000
Si       0.15407082       0.83914677       2.52766899       0.00000000
Si      -0.42520158       3.42039501      -0.11503263       0.00000000
Si      -2.88347661      -2.03471874      -0.47746419       0.00000000
Si       3.75851025      -0.23095962      -0.10307718       0.00000000
Si      -1.98865062       0.99421128      -3.05268092       0.00000000
Si       1.85580567       3.12710985      -1.21787968       0.00000000
Si       1.77686433       0.21346416      -3.44974560       0.00000000
