10
Lattice="16.28999089631971 0.0 0.0 0.0 16.28999089631971 0.0 0.0 0.0 34.25627252547053" Properties=species:S:1:pos:R:3:initial_magmoms:R:1 pbc="T T T"
Si       0.79996932       1.88807616       1.18451405       0.00000000
Si      -1.31250159       1.34465805      -1.48675731       0.00000000
Si      -0.96708843      -1.39719004       1.70791593       0.00000000
Si       1.40998095      -1.36082262      -1.46849871       0.00000000
Si      -2.57942376      -2.61094247       0.13894352       0.00000000
Si       2.67457365       2.73412989      -0.09341691       0.00000000
Si      -2.73813723       2.69206911      -0.13192098       0.00000000
Si      -2.37685761       0.60160599       2.96296369       0.00000000
Si      -2.66841603      -0.00651600      -2.85735154       0.00000000
Si       0.05308911       2.70912474      -2.85543319       0.00000000
