10
Lattice="16.28999089631971 0.0 0.0 0.0 16.28999089631971 0.0 0.0 0.0 34.25627252547053" Properties=species:S:1:pos:R:3:initial_magmoms:R:1 pbc="T T T"
Si       1.62942354      -1.59868431      -0.53515179       0.00000000
Si      -2.23531380      -0.66709179      -0.25586024       0.00000000
Si      -0.14880915       0.11036475       2.37098072       0.00000000
Si       0.18725355       1.76090013      -1.65594914       0.00000000
Si      -2.17108233       1.20638853       2.60447160       0.00000000
Si       3.58327872      -0.40208607      -0.18714212       0.00000000
Si      -1.69196085       3.03767775       1.22318941       0.00000000
Si       3.17593098       0.68194827       1.92859496       0.00000000
Si       2.33324928       2.69423568      -1.28039741       0.00000000
Si      -1.96317306       2.91866301      -1.41961498       0.00000000
