10
Lattice="16.28999089631971 0.0 0.0 0.0 16.28999089631971 0.0 0.0 0.0 34.25627252547053" Properties=species:S:1:pos:R:3:initial_magmoms:R:1 pbc="T T T"
Si       1.96349886       0.54365920       1.19037188       0.00000000
Si       0.06323778       2.17891456      -0.96205370       0.00000000
Si       0.13494636      -1.98644562      -1.36747691       0.00000000
Si      -1.96087617      -0.09204990       1.63097630       0.00000000
Si      -0.88304832       2.17207276       2.15756402       0.00000000
Si       0.30762036      -3.22427385       0.71972469       0.00000000
Si       1.85161914       2.74331419       0.40939694       0.00000000
Si      -3.28522059      -0.55018172      -0.27874345       0.00000000
Si       2.46203802      -1.05302502      -2.03896874       0.00000000
Si      -1.25250552      -2.26360368       2.23381852       0.00000000
