10
Lattice="16.28999089631971 0.0 0.0 0.0 16.28999089631971 0.0 0.0 0.0 34.25627252547053" Properties=species:S:1:pos:R:3:initial_magmoms:R:1 pbc="T T T"
Si       0.16210342       0.70607376       2.20778374       0.00000000
Si       0.68949869       1.86017139      -1.29135943       0.00000000
Si       1.47789396      -1.78370613      -0.50555435       0.00000000
Si      -2.31121610      -0.53752113       0.10845542       0.00000000
Si      -2.65100921      -0.78178968      -2.15026743       0.00000000
Si      -3.19595858       1.50874722       0.86007271       0.00000000
Si       0.04799523      -1.32307380       3.41350244       0.00000000
Si       2.99986866       2.11719501      -0.89388367       0.00000000
Si       1.34306163      -2.15617698      -2.86036610       0.00000000
Si      -1.88270765       1.84235013       2.78366626       0.00000000
