10
Lattice="16.28999089631971 0.0 0.0 0.0 16.28999089631971 0.0 0.0 0.0 34.25627252547053" Properties=species:S:1:pos:R:3:initial_magmoms:R:1 pbc="T T T"
Si      -1.35031068      -1.36399428       1.38063817       0.00000000
Si       1.36500426       1.34949618       1.38481744       0.00000000
Si       1.24103736      -1.48915035      -1.37541752       0.00000000
Si      -1.32398604       1.53609813      -1.47586381       0.00000000
Si       2.47611258      -0.11288970      -2.83166759       0.00000000
Si       2.71549413       2.68421733       0.01912186       0.00000000
Si      -2.70519885       2.71106325       0.01532969       0.00000000
Si      -2.69276958      -2.73900060       0.00994118       0.00000000
Si       0.00684180       2.70392823       2.74150362       0.00000000
Si      -2.70793557      -0.00957852       2.74085275       0.00000000
