10
Lattice="16.28999089631971 0.0 0.0 0.0 16.28999089631971 0.0 0.0 0.0 34.25627252547053" Properties=species:S:1:pos:R:3:initial_magmoms:R:1 pbc="T T T"
Si       1.35612621       1.35738054       1.35795366       0.00000000
Si      -1.35754344      -1.35744570       1.35702874       0.00000000
Si       1.35739683      -1.35752715      -1.35713151       0.00000000
Si      -1.35793440       1.35785295      -1.35720002       0.00000000
Si      -0.00094482       2.71339272      -2.71381768       0.00000000
Si      -0.00360009      -2.71440270       2.71381768       0.00000000
Si       2.71409319      -2.71451673       0.00013703       0.00000000
Si       0.00412137       2.71138905       2.71727757       0.00000000
Si       0.00047241      -2.71358820      -2.71529070       0.00000000
Si       2.71432125       0.00128691      -2.71457132       0.00000000
