10
Lattice="16.28999089631971 0.0 0.0 0.0 16.28999089631971 0.0 0.0 0.0 34.25627252547053" Properties=species:S:1:pos:R:3:initial_magmoms:R:1 pbc="T T T"
Si      -1.35591444      -1.35117405      -1.37059423       0.00000000
Si       1.36559070       1.36446669      -1.36867588       0.00000000
Si      -1.42563564       1.34741106       1.35483634       0.00000000
Si       1.31250159      -1.34465805       1.48675731       0.00000000
Si       2.11247091       0.54341811       2.67127137       0.00000000
Si      -2.69057043      -2.71119194       0.01442190       0.00000000
Si       2.70200601       2.71989243      -0.00493291       0.00000000
Si       2.72248254      -2.70548067       0.01825860       0.00000000
Si       0.00381186      -2.70869631      -2.72652677       0.00000000
Si      -2.70985779       0.00578295      -2.72738317       0.00000000
