10
Lattice="16.28999089631971 0.0 0.0 0.0 16.28999089631971 0.0 0.0 0.0 34.25627252547053" Properties=species:S:1:pos:R:3:initial_magmoms:R:1 pbc="T T T"
Si      -2.18473335      -0.08607636       0.90601040       0.00000000
Si       1.13797053      -1.64568096       1.26611254       0.00000000
Si       1.41011127       1.94007384       0.10235780       0.00000000
Si      -0.24606045      -0.88470990      -2.38478600       0.00000000
Si       3.56053788       0.78231096      -0.13397636       0.00000000
Si      -0.03098358      -1.56950892       3.30912352       0.00000000
Si      -3.52890270      -1.27768986      -0.62414963       0.00000000
Si       1.68132348       2.05908858       2.74516219       0.00000000
Si       3.37328433      -0.97858917       1.52197278       0.00000000
Si      -2.12333634      -2.43030510      -2.06853192       0.00000000
