10
Lattice="16.28999089631971 0.0 0.0 0.0 16.28999089631971 0.0 0.0 0.0 34.25627252547053" Properties=species:S:1:pos:R:3:initial_magmoms:R:1 pbc="T T T"
Si       1.13450076      -1.61187921      -1.24381169       0.00000000
Si       0.33057297       1.77157008      -1.49614354       0.00000000
Si      -2.34613467       0.18557568       0.30751873       0.00000000
Si       0.97528230      -0.38799522       2.21299070       0.00000000
Si      -0.14375925       1.51163055       3.07974339       0.00000000
Si       3.33251046      -0.66585375      -0.76031839       0.00000000
Si       0.65537928      -3.44316843       0.13747050       0.00000000
Si      -2.31422256       0.83779470       2.55915053       0.00000000
Si       2.64947076       1.22634378      -2.06298240       0.00000000
Si       0.37211247      -2.71639008       2.31822603       0.00000000
