10
Lattice="16.28999089631971 0.0 0.0 0.0 16.28999089631971 0.0 0.0 0.0 34.25627252547053" Properties=species:S:1:pos:R:3:initial_magmoms:R:1 pbc="T T T"
Si      -1.13450076       1.61187921       1.24381169       0.00000000
Si      -0.47912148      -1.83128922       1.38128219       0.00000000
Si       2.19800970       0.94602546       0.48349330       0.00000000
Si      -0.27121221      -0.11901474      -2.64280439       0.00000000
Si       1.51497000       2.83822299      -0.81917070       0.00000000
Si      -0.80392779       3.38344929      -0.25233184       0.00000000
Si       1.54315170      -2.92731300       1.14779131       0.00000000
Si       1.87921440      -1.27677762      -2.87913855       0.00000000
Si      -0.15921846       1.22388399       3.45680239       0.00000000
Si       1.69196085      -3.03767775      -1.22318941       0.00000000
