10
Lattice="16.28999089631971 0.0 0.0 0.0 16.28999089631971 0.0 0.0 0.0 34.25627252547053" Properties=species:S:1:pos:R:3:initial_magmoms:R:1 pbc="T T T"
Si       1.37893221      -1.32962238       1.31697286       0.00000000
Si      -1.33139799       1.39272984       1.30904938       0.00000000
Si       1.80652842       0.81577062      -1.26988724       0.00000000
Si      -1.11894381      -1.62655650      -1.32861383       0.00000000
Si       2.63272464       2.62974357       0.01995772       0.00000000
Si       0.02712285      -2.68569972       2.65346495       0.00000000
Si       0.66122739      -3.46493187      -1.34761922       0.00000000
Si      -2.69128719       0.02943603       2.65116978       0.00000000
Si      -2.65644288       2.68512957      -0.09503038       0.00000000
Si       2.61749349      -2.72473056      -0.05584803       0.00000000
