10
Lattice="16.28999089631971 0.0 0.0 0.0 16.28999089631971 0.0 0.0 0.0 34.25627252547053" Properties=species:S:1:pos:R:3:initial_magmoms:R:1 pbc="T T T"
Si      -1.35729909       1.35795069       1.35678894       0.00000000
Si       1.35783666       1.35638685      -1.35812494       0.00000000
Si       1.35822762      -1.35773892       1.35730279       0.00000000
Si      -1.35765747      -1.35930276      -1.35678894       0.00000000
Si       0.00050499      -2.71373481      -2.71347512       0.00000000
Si       0.00218286       2.71381626       2.71357789       0.00000000
Si       2.71415835       0.00047241       2.71429727       0.00000000
Si      -2.71428867       0.00081450       2.71494814       0.00000000
Si      -2.71438641       2.71500543      -0.00023979       0.00000000
Si      -2.71464705      -2.71484253      -0.00017128       0.00000000
