10
Lattice="16.28999089631971 0.0 0.0 0.0 16.28999089631971 0.0 0.0 0.0 34.25627252547053" Properties=species:S:1:pos:R:3:initial_magmoms:R:1 pbc="T T T"
Si      -0.20295711       0.91885374       2.18431818       0.00000000
Si      -1.82792859      -1.13086809      -1.03388914       0.00000000
Si       1.84194288      -1.49979586      -0.47688184       0.00000000
Si       0.28738818       1.93855887      -1.60069374       0.00000000
Si       2.07327717       1.23455394       1.62398802       0.00000000
Si      -1.71382040       0.89827947      -2.23960784       0.00000000
Si       3.33829341      -0.68809937       1.08876772       0.00000000
Si      -0.90966129      -3.19398749      -1.76433605       0.00000000
Si      -0.77954981      -0.91455970       3.72462634       0.00000000
Si       3.24245934      -0.81664213      -2.21864299       0.00000000
