10
Lattice="16.28999089631971 0.0 0.0 0.0 16.28999089631971 0.0 0.0 0.0 34.25627252547053" Properties=species:S:1:pos:R:3:initial_magmoms:R:1 pbc="T T T"
Si       0.28794204       1.77088590       1.48857290       0.00000000
Si      -1.83378159       0.98194491      -1.06290422       0.00000000
Si       1.87533738      -0.09822870      -1.47764514       0.00000000
Si      -0.66777597      -1.79657523       1.49491031       0.00000000
Si       2.08979523       0.63765576       2.59080334       0.00000000
Si       1.49986917      -1.71411525       2.58611023       0.00000000
Si      -3.75851025       0.23095962       0.10307718       0.00000000
Si       3.72850407      -0.64470933      -0.01616897       0.00000000
Si       2.23270740       2.10877308      -2.37382399       0.00000000
Si      -1.98164592       0.44442378      -3.34666841       0.00000000
