10
Lattice="16.28999089631971 0.0 0.0 0.0 16.28999089631971 0.0 0.0 0.0 34.25627252547053" Properties=species:S:1:pos:R:3:initial_magmoms:R:1 pbc="T T T"
Si      -1.35702216       1.35633798      -1.36103672       0.00000000
Si      -1.36344042      -1.34732961       1.36829906       0.00000000
Si       1.35982404      -1.35928647      -1.36261251       0.00000000
Si       1.34350146       1.37443617       1.38292649       0.00000000
Si       2.67462252      -0.03520269       2.73728324       0.00000000
Si      -2.71140534       2.71257496      -0.00164430       0.00000000
Si       2.71568961       2.71270854       0.00133600       0.00000000
Si       2.71567332      -2.71559187      -0.00709105       0.00000000
Si       0.00065160       2.71448462      -2.71881910       0.00000000
Si      -2.71471221      -0.00022806      -2.71923018       0.00000000
