10
Lattice="16.28999089631971 0.0 0.0 0.0 16.28999089631971 0.0 0.0 0.0 34.25627252547053" Properties=species:S:1:pos:R:3:initial_magmoms:R:1 pbc="T T T"
Si      -0.13494636       1.98644562       1.36747691       0.00000000
Si       0.17267400      -1.23782823       2.08720160       0.00000000
Si      -2.36276676       0.13730841      -0.66563400       0.00000000
Si       0.84463650      -0.90101619      -2.21925960       0.00000000
Si       2.32709166       0.93342060      -0.67149183       0.00000000
Si      -0.44383734      -2.83136490      -1.93506940       0.00000000
Si       2.43367713      -0.76385439       2.50166847       0.00000000
Si      -2.67506235      -2.13224697      -1.24110545       0.00000000
Si      -3.42016695       1.43626391       1.08873346       0.00000000
Si      -1.38745188      -0.27715806       3.60129543       0.00000000
