10
Lattice="16.28999089631971 0.0 0.0 0.0 16.28999089631971 0.0 0.0 0.0 34.25627252547053" Properties=species:S:1:pos:R:3:initial_magmoms:R:1 pbc="T T T"
Si      -1.41121899       0.32614651       1.87656394       0.00000000
Si       1.04399352      -2.17570869      -0.01942332       0.00000000
Si      -1.44464607       1.82645828      -0.85294741       0.00000000
Si       2.20985253       0.51911410      -1.57870120       0.00000000
Si       3.12245091      -0.99658962       0.03922345       0.00000000
Si       1.32455619       2.99594996      -0.63507739       0.00000000
Si      -3.21468489       1.17737182       0.53200021       0.00000000
Si       0.14921640       1.55989197       3.15495106       0.00000000
Si       1.86781140       2.51177858       1.73073062       0.00000000
Si      -1.72346571       1.66289690      -3.18042263       0.00000000
