10
Lattice="16.28999089631971 0.0 0.0 0.0 16.28999089631971 0.0 0.0 0.0 34.25627252547053" Properties=species:S:1:pos:R:3:initial_magmoms:R:1 pbc="T T T"
Si       1.27088064      -1.46766216      -1.27723898       0.00000000
Si      -1.33802802      -1.34983659       1.35996793       0.00000000
Si       1.38162006       1.36266410       1.35462395       0.00000000
Si      -1.32118416       1.38099687      -1.43263923       0.00000000
Si       2.04670818       0.36711541      -2.61862835       0.00000000
Si       0.39741084       2.33288347      -2.85685966       0.00000000
Si      -2.69324199      -2.70467589       0.01185268       0.00000000
Si      -2.69506647       0.00279489       2.71411914       0.00000000
Si      -2.69143380       2.71820713      -0.01407248       0.00000000
Si       0.02047653      -2.71081722       2.71442744       0.00000000
