10
Lattice="16.28999089631971 0.0 0.0 0.0 16.28999089631971 0.0 0.0 0.0 34.25627252547053" Properties=species:S:1:pos:R:3:initial_magmoms:R:1 pbc="T T T"
Si      -1.56043539      -1.23374547      -1.27838712       0.00000000
Si      -1.37024964       1.33721026       1.41856674       0.00000000
Si       1.32118416      -1.38099687       1.43263923       0.00000000
Si       1.71859500       0.95188660      -1.42422044       0.00000000
Si      -0.14921640      -1.55989197      -3.15495106       0.00000000
Si       3.36789234      -1.01388145      -1.18598913       0.00000000
Si      -2.85472476       2.57357239       0.03004277       0.00000000
Si       2.59206480      -2.84865903       0.15540024       0.00000000
Si       2.76495057       2.68911736      -0.05421743       0.00000000
Si      -0.01651806       2.69646415       2.78575589       0.00000000
