10
Lattice="16.28999089631971 0.0 0.0 0.0 16.28999089631971 0.0 0.0 0.0 34.25627252547053" Properties=species:S:1:pos:R:3:initial_magmoms:R:1 pbc="T T T"
Si      -1.73102427      -0.50275827      -1.43585247       0.00000000
Si       2.11276413      -1.10402217       0.18375075       0.00000000
Si       1.22917824       1.96336854      -1.36035160       0.00000000
Si       0.14358006       0.34329546      -2.71378343       0.00000000
Si      -1.10125287      -0.12220758       2.59340682       0.00000000
Si       1.04474286       0.81112797       2.96895854       0.00000000
Si       2.75634945      -0.65824632       2.42226238       0.00000000
Si      -0.34503849       3.74972994      -1.48819608       0.00000000
Si       1.79144388       2.94681213       2.24710996       0.00000000
Si       0.05595615       4.10006268       0.92193958       0.00000000
