10
Lattice="16.28999089631971 0.0 0.0 0.0 16.28999089631971 0.0 0.0 0.0 34.25627252547053" Properties=species:S:1:pos:R:3:initial_magmoms:R:1 pbc="T T T"
Si      -0.74670102      -2.13568416       0.72184858       0.00000000
Si       1.00644507       0.94319100       2.00094425       0.00000000
Si      -1.73548773       1.15325055      -1.32517039       0.00000000
Si       2.00665663       0.76694949      -1.25758272       0.00000000
Si       3.60376244      -0.48514878       0.09591762       0.00000000
Si       0.96490557      -3.60505845       0.17515242       0.00000000
Si      -0.66013596      -2.09041425       3.02859875       0.00000000
Si      -3.62628432       1.03669560       0.06443608       0.00000000
Si      -0.56226564      -0.98344359      -3.60746156       0.00000000
Si       0.11341098       3.09109266       2.26074397       0.00000000
