10
Lattice="16.28999089631971 0.0 0.0 0.0 16.28999089631971 0.0 0.0 0.0 34.25627252547053" Properties=species:S:1:pos:R:3:initial_magmoms:R:1 pbc="T T T"
Si       0.67264668      -0.10059075       2.25183733       0.00000000
Si      -1.00053180      -1.78748541      -1.28546734       0.00000000
Si       1.86575886       1.05135660      -1.27673199       0.00000000
Si      -1.82808009       1.76941980       0.06327137       0.00000000
Si       1.58703696      -2.30584950       1.81623433       0.00000000
Si      -2.24628023      -0.41484114      -2.72224473       0.00000000
Si       0.48501846       2.32407801      -2.70306121       0.00000000
Si      -0.83427606       3.63809457      -1.13415730       0.00000000
Si      -3.58114305       0.91188162      -1.29118815       0.00000000
Si      -1.13904567       0.37685286       3.73715588       0.00000000
