10
Lattice="16.28999089631971 0.0 0.0 0.0 16.28999089631971 0.0 0.0 0.0 34.25627252547053" Properties=species:S:1:pos:R:3:initial_magmoms:R:1 pbc="T T T"
Si       1.90076607      -0.75324960      -1.08561614       0.00000000
Si       0.58992606       2.35177101       0.00469311       0.00000000
Si      -2.16764514      -0.08245998      -1.09119991       0.00000000
Si       0.28994571       1.49090967       2.26289941       0.00000000
Si      -1.95027138      -1.90591371       2.04886880       0.00000000
Si      -1.49986917       1.71411525      -2.58611023       0.00000000
Si      -1.34654769      -3.22045155      -0.04429339       0.00000000
Si      -0.47104164      -0.53893836       3.42703508       0.00000000
Si       2.22863490       1.06940592      -2.60227920       0.00000000
Si      -3.57495453      -0.54542178       0.90494846       0.00000000
