10
Lattice="16.28999089631971 0.0 0.0 0.0 16.28999089631971 0.0 0.0 0.0 34.25627252547053" Properties=species:S:1:pos:R:3:initial_magmoms:R:1 pbc="T T T"
Si       0.29998035       0.86086134      -2.25820630       0.00000000
Si       1.95626610       0.74020131       1.29177119       0.00000000
Si      -0.76098735      -2.02984803       1.16413567       0.00000000
Si      -1.78017120       1.83837537       0.01900539       0.00000000
Si      -0.28994571      -1.49090967      -2.26289941       0.00000000
Si      -2.00083554      -0.59971635       2.63675884       0.00000000
Si       0.71770482       2.13530949       2.66459208       0.00000000
Si      -3.38050080       0.77138037       1.29384369       0.00000000
Si       3.00788334       2.27248758      -0.08807022       0.00000000
Si      -0.66122739       3.46493187       1.34761922       0.00000000
