10
Lattice="16.28999089631971 0.0 0.0 0.0 16.28999089631971 0.0 0.0 0.0 34.25627252547053" Properties=species:S:1:pos:R:3:initial_magmoms:R:1 pbc="T T T"
Si       1.23856128      -1.39510818      -1.37282089       0.00000000
Si      -1.37893221       1.32962238      -1.31697286       0.00000000
Si      -1.35180936      -1.35607734       1.33649209       0.00000000
Si       1.35913986       1.35922131       1.33895854       0.00000000
Si       0.42759621       2.14539300      -2.58686010       0.00000000
Si      -0.71770482      -2.13530949      -2.66459208       0.00000000
Si       2.29017852       0.13717809      -2.75266230       0.00000000
Si      -2.49787602      -0.29693412      -2.64558669       0.00000000
Si      -2.71169856       0.00037467       2.69321252       0.00000000
Si       0.00262269      -2.71238274       2.69386339       0.00000000
