10
Lattice="16.28999089631971 0.0 0.0 0.0 16.28999089631971 0.0 0.0 0.0 34.25627252547053" Properties=species:S:1:pos:R:3:initial_magmoms:R:1 pbc="T T T"
Si      -1.35612621       1.35703845       1.35480208       0.00000000
Si      -1.35593073      -1.35821133      -1.35699448       0.00000000
Si       1.35900954       1.35708732      -1.35720002       0.00000000
Si       1.35708732      -1.35637056       1.36196164       0.00000000
Si      -0.01622484       2.70554094       2.71453706       0.00000000
Si      -2.71197549       2.71334385      -0.00071938       0.00000000
Si      -2.71415835      -0.00047241      -2.71429727       0.00000000
Si       0.00149868       2.71463076      -2.71436578       0.00000000
Si       0.00120546      -2.71539639      -2.71433153       0.00000000
Si       2.71599912      -0.00019548      -2.71381768       0.00000000
