10
Lattice="16.28999089631971 0.0 0.0 0.0 16.28999089631971 0.0 0.0 0.0 34.25627252547053" Properties=species:S:1:pos:R:3:initial_magmoms:R:1 pbc="T T T"
Si       0.49761063       1.96247259      -1.23418568       0.00000000
Si       1.57421673      -1.78636140       0.12784448       0.00000000
Si       0.40099464       0.35033274       2.41013566       0.00000000
Si      -2.11146093      -0.75859272      -1.12298975       0.00000000
Si       1.94971752       0.65073663      -2.61396059       0.00000000
Si      -0.79645068      -2.07601389      -2.62386066       0.00000000
Si       3.29814742      -0.75303783      -1.19712037       0.00000000
Si       0.48861855      -3.40643448      -1.22558735       0.00000000
Si       0.63596160       2.70539433       2.46179414       0.00000000
Si       1.16919846       3.75956910       0.24664530       0.00000000
