10
Lattice="16.28999089631971 0.0 0.0 0.0 16.28999089631971 0.0 0.0 0.0 34.25627252547053" Properties=species:S:1:pos:R:3:initial_magmoms:R:1 pbc="T T T"
Si      -1.05161724      -1.53228627       1.37984141       0.00000000
Si       1.62117821       1.07224038       1.40055962       0.00000000
Si       0.97060937      -1.71576054      -1.62032260       0.00000000
Si      -1.86258231       2.00821491       0.16580220       0.00000000
Si       2.55939425       1.33736013      -1.76991982       0.00000000
Si      -0.58196025      -0.94521096      -3.20066810       0.00000000
Si      -2.29017852      -0.13717809       2.75266230       0.00000000
Si      -2.70790299      -1.41162624      -2.17013608       0.00000000
Si      -3.00788334      -2.27248758       0.08807022       0.00000000
Si       0.43745200       2.58388722       2.74352272       0.00000000
