10
Lattice="16.28999089631971 0.0 0.0 0.0 16.28999089631971 0.0 0.0 0.0 34.25627252547053" Properties=species:S:1:pos:R:3:initial_magmoms:R:1 pbc="T T T"
Si       1.04500350       1.65426579      -1.29920412       0.00000000
Si      -0.72584982       1.68493986       1.52824168       0.00000000
Si      -1.72864593      -0.98446986      -1.34616949       0.00000000
Si       1.61762958      -1.90281861       0.14737057       0.00000000
Si      -0.34769376      -2.31635655      -2.73080880       0.00000000
Si       2.40023376       0.38393901      -2.71827100       0.00000000
Si      -2.90036934      -2.53275291      -0.03374245       0.00000000
Si       3.05789364       2.46790798      -0.22992823       0.00000000
Si       1.08439272      -2.95699338       2.36251941       0.00000000
Si       1.44119259       1.95275628       3.17487311       0.00000000
