10
Lattice="16.28999089631971 0.0 0.0 0.0 16.28999089631971 0.0 0.0 0.0 34.25627252547053" Properties=species:S:1:pos:R:3:initial_magmoms:R:1 pbc="T T T"
Si      -2.07845739      -1.17911907      -0.05864677       0.00000000
Si      -0.91259838       1.51570372      -1.61792466       0.00000000
Si       1.54616439      -1.49635053      -1.09322104       0.00000000
Si       0.39465783       1.54260014       1.92973848       0.00000000
Si      -1.20736593      -2.10615039       1.98128289       0.00000000
Si       1.29654946       2.34340514      -1.75169547       0.00000000
Si      -3.12245091       0.99658962      -0.03922345       0.00000000
Si      -0.38116971      -0.29217744       3.27112785       0.00000000
Si       2.21481676       0.28028574      -2.48214238       0.00000000
Si      -1.25463951       3.50836820       1.69150717       0.00000000
