10
Lattice="16.28999089631971 0.0 0.0 0.0 16.28999089631971 0.0 0.0 0.0 34.25627252547053" Properties=species:S:1:pos:R:3:initial_magmoms:R:1 pbc="T T T"
Si      -1.79572815       1.08071118      -0.93259328       0.00000000
Si       1.62958644      -0.05069448      -1.72644859       0.00000000
Si      -1.19065239      -1.96522560       0.62154616       0.00000000
Si       0.58543002       1.24841673       2.01978521       0.00000000
Si       0.61120080      -3.09845574       1.72377660       0.00000000
Si       3.53178603      -0.76592322      -0.56286513       0.00000000
Si       0.75411297      -1.62733842      -3.24085073       0.00000000
Si      -3.63426642       0.61449138       0.43251994       0.00000000
Si       2.73714354      -2.63204046       0.69324457       0.00000000
Si      -1.20972798       3.09065283      -2.00443839       0.00000000
