10
Lattice="16.28999089631971 0.0 0.0 0.0 16.28999089631971 0.0 0.0 0.0 34.25627252547053" Properties=species:S:1:pos:R:3:initial_magmoms:R:1 pbc="T T T"
Si      -0.30108807       1.79390367       1.45178164       0.00000000
Si      -0.52272981       0.48262383      -2.24073829       0.00000000
Si      -0.82751571      -2.13573303       0.55621941       0.00000000
Si       2.34048204      -0.12598686       0.66138622       0.00000000
Si       1.50195429      -0.47858391      -2.88304376       0.00000000
Si       0.42958359       0.40317750       3.29545526       0.00000000
Si       0.00822645      -1.91565513       2.75283560       0.00000000
Si       2.91946122       1.97752455      -0.19741901       0.00000000
Si       1.32440958       3.43210752       0.72023853       0.00000000
Si       1.85748354      -2.59041951      -2.01468103       0.00000000
