10
Lattice="16.28999089631971 0.0 0.0 0.0 16.28999089631971 0.0 0.0 0.0 34.25627252547053" Properties=species:S:1:pos:R:3:initial_magmoms:R:1 pbc="T T T"
Si      -1.91002923       0.86957649       1.05156539       0.00000000
Si       1.09750943       1.83620880      -1.01545925       0.00000000
Si      -0.80195085      -1.16134668      -2.01564020       0.00000000
Si       1.12632807      -1.00756908       2.02540324       0.00000000
Si      -2.23789806      -0.95307903       2.56822844       0.00000000
Si       3.27879907       1.10125287      -1.15032627       0.00000000
Si       0.29859407       2.15265834      -3.18419082       0.00000000
Si       0.44200146      -3.08540745      -2.44336426       0.00000000
Si      -0.35354741      -0.63770463       3.90264803       0.00000000
Si      -1.42279533       2.61835686       2.62800567       0.00000000
