10
Lattice="16.28999089631971 0.0 0.0 0.0 16.28999089631971 0.0 0.0 0.0 34.25627252547053" Properties=species:S:1:pos:R:3:initial_magmoms:R:1 pbc="T T T"
Si      -1.88435066      -0.31537440      -1.33441959       0.00000000
Si       1.47987548      -0.36986445      -1.87724478       0.00000000
Si       0.36402677      -1.57550364       1.82716209       0.00000000
Si       0.48332169       2.48551191       0.30570315       0.00000000
Si       1.40945055      -0.01549179       3.21108000       0.00000000
Si      -1.55648183       1.50728112      -2.85108264       0.00000000
Si       3.42391593       0.73674783      -0.98778017       0.00000000
Si      -1.06924793       3.25606149      -1.27464236       0.00000000
Si       3.30933207       0.68380533       1.65677129       0.00000000
Si      -1.77665747      -2.46552408      -2.27098660       0.00000000
