10
Lattice="16.28999089631971 0.0 0.0 0.0 16.28999089631971 0.0 0.0 0.0 34.25627252547053" Properties=species:S:1:pos:R:3:initial_magmoms:R:1 pbc="T T T"
Si       1.34716997       1.32647841      -1.37693849       0.00000000
Si       1.35409322      -1.35830907       1.35589828       0.00000000
Si      -1.36110239       1.35563751       1.35535018       0.00000000
Si      -1.35705867      -1.36360332      -1.38246403       0.00000000
Si      -0.16738627       2.56459986      -2.69027333       0.00000000
Si       2.71194617      -0.00117288       2.71299553       0.00000000
Si      -0.00315049       2.71412577       2.71302979       0.00000000
Si      -0.00168764      -2.71642266       2.71275574       0.00000000
Si       2.71124570      -2.71805166      -0.00270625       0.00000000
Si       2.71442225       2.71503801      -0.00623465       0.00000000
