10
Lattice="16.28999089631971 0.0 0.0 0.0 16.28999089631971 0.0 0.0 0.0 34.25627252547053" Properties=species:S:1:pos:R:3:initial_magmoms:R:1 pbc="T T T"
Si      -1.34716997      -1.32647841       1.37693849       0.00000000
Si      -1.51455623       1.23812145      -1.31333484       0.00000000
Si       1.36725228       1.38855960       1.37070385       0.00000000
Si       1.34148150      -1.47413097      -1.50379297       0.00000000
Si       0.40135302       2.07537858      -2.42204828       0.00000000
Si       2.29376232       0.45336699      -2.55815024       0.00000000
Si      -2.70422864      -2.69008173      -0.00552554       0.00000000
Si       2.72484459      -2.67947694       0.00714244       0.00000000
Si       0.00692325      -2.68478748       2.73283678       0.00000000
Si      -2.70827235       0.02915910       2.73228867       0.00000000
