10
Lattice="16.28999089631971 0.0 0.0 0.0 16.28999089631971 0.0 0.0 0.0 34.25627252547053" Properties=species:S:1:pos:R:3:initial_magmoms:R:1 pbc="T T T"
Si      -1.35899850      -1.34296389      -1.39227846       0.00000000
Si       1.35542411       1.37526696      -1.39279231       0.00000000
Si      -1.37658221       1.25216343       1.54081374       0.00000000
Si       1.39171823      -1.36656810       1.55451626       0.00000000
Si       2.71101275      -2.68058466      -0.01438764       0.00000000
Si      -2.70357867      -2.68900659      -0.01935480       0.00000000
Si      -2.70149355       2.70658350      -0.02439048       0.00000000
Si       2.71844099       2.71521720      -0.02000567       0.00000000
Si      -0.00271391      -2.69946477      -2.75139683       0.00000000
Si       2.71370060       0.01466100      -2.75256155       0.00000000
