10
Lattice="16.28999089631971 0.0 0.0 0.0 16.28999089631971 0.0 0.0 0.0 34.25627252547053" Properties=species:S:1:pos:R:3:initial_magmoms:R:1 pbc="T T T"
Si      -1.33706854      -1.35296432       1.34829338       0.00000000
Si       1.35547461      -1.35550556      -1.35418547       0.00000000
Si      -1.35844754       1.35610992      -1.35497336       0.00000000
Si       1.35690813       1.34271954       1.40012315       0.00000000
Si       0.08482203      -2.65451023       2.69432585       0.00000000
Si      -2.63061574      -0.03301983       2.73145967       0.00000000
Si       2.71425609      -0.00037467      -2.71261871       0.00000000
Si      -0.00017919      -2.71529255      -2.71234466       0.00000000
Si      -0.00123804       2.71520091      -2.71296128       0.00000000
Si      -2.71557833      -0.00026064      -2.71282425       0.00000000
