10
Lattice="16.2900001489832 0.0 0.0 0.0 16.2900001489832 0.0 0.0 0.0 29.41887678731836" Properties=species:S:1:pos:R:3:initial_magmoms:R:1 pbc="T T T"
Si       1.30088683       1.35334552       1.44690862       0.00000000
Si      -1.38704464      -1.28210446       1.43283463       0.00000000
Si      -1.31738860       1.33296347      -1.46706055       0.00000000
Si       1.53992629      -1.38611611      -1.18987589       0.00000000
Si      -2.35460549      -0.39838824      -2.79199850       0.00000000
Si       2.86941837      -0.00216657      -2.51743212       0.00000000
Si      -2.69931818       2.70897815      -0.03924478       0.00000000
Si      -0.01003464      -2.58927923       2.84627339       0.00000000
Si       2.79673239       2.64639197       0.22190394       0.00000000
Si      -2.39722013      -3.02142036       0.18522037       0.00000000
