10
Lattice="16.2900001489832 0.0 0.0 0.0 16.2900001489832 0.0 0.0 0.0 29.41887678731836" Properties=species:S:1:pos:R:3:initial_magmoms:R:1 pbc="T T T"
Si      -1.40193370      -1.35364688       1.33559347       0.00000000
Si       1.32994819      -1.49465150      -1.26741817       0.00000000
Si      -1.26426691       1.32901966      -1.50700550       0.00000000
Si       1.30018636       1.37129221       1.44706160       0.00000000
Si      -2.61741206       2.61638579       0.00824023       0.00000000
Si       2.82579375      -0.20160504      -2.49242284       0.00000000
Si       0.01296684      -2.70479162       2.63746703       0.00000000
Si       2.60074739       2.77843872       0.06248864       0.00000000
Si      -2.67025682      -0.13901886      -2.75357156       0.00000000
Si       2.72060921      -0.00970884       2.75676057       0.00000000
