10
Lattice="16.2900001489832 0.0 0.0 0.0 16.2900001489832 0.0 0.0 0.0 29.41887678731836" Properties=species:S:1:pos:R:3:initial_magmoms:R:1 pbc="T T T"
Si       0.40448070      -1.63924642       1.64089669       0.00000000
Si       1.99632323       1.16634772      -0.46993714       0.00000000
Si      -0.45919881      -1.73032382      -1.55411100       0.00000000
Si      -1.36069557       1.58025496       1.33826471       0.00000000
H       -1.19513052       0.85990024      -2.03434475       0.00000000
H       -1.59123979       0.48985659       2.39401994       0.00000000
H        0.99033427      -2.89603623       0.98485574       0.00000000
Si       2.19678797      -0.55917055       2.60145244       0.00000000
Si      -2.67084326      -2.13017816      -0.89239221       0.00000000
Si       0.45129816       3.01888726       1.93558558       0.00000000
