10
Lattice="16.2900001489832 0.0 0.0 0.0 16.2900001489832 0.0 0.0 0.0 29.41887678731836" Properties=species:S:1:pos:R:3:initial_magmoms:R:1 pbc="T T T"
Si       0.60868400       2.23226759       0.47184936       0.00000000
Si       1.07980709      -1.58387671       1.38380513       0.00000000
Si      -2.33814445       0.26109612      -0.25164907       0.00000000
Si       0.62477200      -0.59144104      -2.27749177       0.00000000
H        2.11572078       1.13972986      -1.84126866       0.00000000
Si      -1.78869903       1.75967840      -2.02587211       0.00000000
H       -1.89245004      -1.06715791       2.43523578       0.00000000
Si       3.16484566      -1.27493686       0.38018014       0.00000000
Si      -0.03462440      -3.45686835       0.57372694       0.00000000
Si       2.53246786       2.27090747      -0.90692513       0.00000000
