10
Lattice="16.2900001489832 0.0 0.0 0.0 16.2900001489832 0.0 0.0 0.0 29.41887678731836" Properties=species:S:1:pos:R:3:initial_magmoms:R:1 pbc="T T T"
Si       1.38230425       1.19177478       1.47123803       0.00000000
Si       1.34636851      -1.24677145      -1.46829614       0.00000000
Si      -1.41260365       1.39892657      -1.25353834       0.00000000
Si      -0.91101826      -1.82172701       1.17778473       0.00000000
H       -1.37547548      -1.35961228       2.53693684       0.00000000
Si       2.63368577      -2.61812882      -0.08702104       0.00000000
H       -3.08718309       0.36387625       2.12860283       0.00000000
Si       0.81143749      -3.50467950       1.15271985       0.00000000
Si       2.69320943       2.65860947       0.09775893       0.00000000
Si      -0.02005299       2.72499122      -2.63846138       0.00000000
