10
Lattice="16.2900001489832 0.0 0.0 0.0 16.2900001489832 0.0 0.0 0.0 29.41887678731836" Properties=species:S:1:pos:R:3:initial_magmoms:R:1 pbc="T T T"
H       -0.27914544      -1.44920891       0.28295076       0.00000000
Si       2.31032960       0.44026983       0.23170307       0.00000000
Si       0.02070459       0.26326269      -2.37533895       0.00000000
Si      -1.20233233       1.24344829       1.69485091       0.00000000
H        0.97213834      -1.29748548       3.00875679       0.00000000
Si       1.38442195      -1.59314165      -2.80447211       0.00000000
Si      -2.08567388      -0.74939865       2.75263604       0.00000000
Si       2.80404660       2.07697502      -1.37039012       0.00000000
Si       0.53603874       2.55495620       2.74904694       0.00000000
H       -2.14806458      -1.45784587      -2.78673252       0.00000000
