10
Lattice="16.2900001489832 0.0 0.0 0.0 16.2900001489832 0.0 0.0 0.0 29.41887678731836" Properties=species:S:1:pos:R:3:initial_magmoms:R:1 pbc="T T T"
Si      -1.46509003      -0.22611644      -0.19619449       0.00000000
H        1.67453057       0.12572638       0.53689450       0.00000000
Si       1.81151318       1.50509518      -0.11982309       0.00000000
H        0.92222578      -0.63470223       2.12413116       0.00000000
Si       0.10914300       2.84981026       0.98585598       0.00000000
Si      -1.49157757      -2.28271267      -1.33467560       0.00000000
Si      -2.04050171       1.46104702      -1.79619894       0.00000000
Si      -2.51097320      -0.28293596       2.00992708       0.00000000
Si       0.78016069      -2.60724205      -1.99024585       0.00000000
Si       1.85227076       1.30442681      -2.57641697       0.00000000
