10
Lattice="16.2900001489832 0.0 0.0 0.0 16.2900001489832 0.0 0.0 0.0 29.41887678731836" Properties=species:S:1:pos:R:3:initial_magmoms:R:1 pbc="T T T"
Si       1.38774511      -1.48595752      -1.19127035       0.00000000
Si      -1.30056103      -1.40714650       1.38457296       0.00000000
Si       1.37415925       1.26715024       1.46350381       0.00000000
Si      -1.25680609       1.34193763      -1.56161282       0.00000000
Si      -2.61231329       2.64705986      -0.11100331       0.00000000
Si       2.77729842      -0.19334601      -2.50819342       0.00000000
Si       2.76589542       2.60467328       0.15852950       0.00000000
Si      -2.60074739      -2.77843872      -0.06248864       0.00000000
Si       2.83160928      -0.15056847       2.63184508       0.00000000
Si      -2.63961533      -0.07454304       2.82962819       0.00000000
