10
Lattice="16.2900001489832 0.0 0.0 0.0 16.2900001489832 0.0 0.0 0.0 29.41887678731836" Properties=species:S:1:pos:R:3:initial_magmoms:R:1 pbc="T T T"
Si       1.34884459      -1.25646074      -1.45320426       0.00000000
Si       0.47913777      -0.30126726       2.30367457       0.00000000
Si      -1.26374563       1.51001785      -1.33835296       0.00000000
H        2.34150833      -2.20178248      -0.77709963       0.00000000
Si      -0.11464902      -2.64197738      -2.64090315       0.00000000
Si       1.87551659      -2.24785549       2.36666038       0.00000000
Si       2.28693683       1.24556599       2.79211618       0.00000000
Si       2.66967038       0.19065816      -2.74813496       0.00000000
Si      -2.77475718       0.25093116      -2.71765700       0.00000000
Si       2.88926431       2.50517396       0.81922746       0.00000000
