10
Lattice="16.2900001489832 0.0 0.0 0.0 16.2900001489832 0.0 0.0 0.0 29.41887678731836" Properties=species:S:1:pos:R:3:initial_magmoms:R:1 pbc="T T T"
Si       0.91046440      -0.29269872      -2.19132388       0.00000000
Si      -0.80014852      -1.88200001       1.25423851       0.00000000
Si       1.84327868       0.75492748       1.39259549       0.00000000
Si      -1.78562837       1.70618204       0.15350682       0.00000000
Si      -2.13874670      -0.68069395       2.77744204       0.00000000
Si       0.60155713       2.13832316       2.81455984       0.00000000
H       -2.12825594       1.26690589      -2.79040988       0.00000000
Si       3.00851868      -1.39729105      -1.72406386       0.00000000
Si       1.49670892       1.88463899      -2.92561904       0.00000000
Si      -0.77545288       3.44549793       1.40112108       0.00000000
