10
Lattice="16.2900001489832 0.0 0.0 0.0 16.2900001489832 0.0 0.0 0.0 29.41887678731836" Properties=species:S:1:pos:R:3:initial_magmoms:R:1 pbc="T T T"
Si       1.35110890      -1.36176256      -1.34973807       0.00000000
Si       1.32774904       1.33938010       1.40319217       0.00000000
Si      -1.30460095      -1.33516099       1.44202508       0.00000000
Si      -1.34377840       1.38559483      -1.37289072       0.00000000
Si       2.64438830       0.12618234      -2.61296698       0.00000000
Si       2.71779104      -2.60376104       0.14344644       0.00000000
Si      -2.73140948       0.10681353       2.62739989       0.00000000
Si      -2.66725946      -2.72999225       0.09266946       0.00000000
Si      -2.69650001      -0.01905930      -2.71003163       0.00000000
Si      -0.04202820       2.84109006       2.56211940       0.00000000
