10
Lattice="16.2900001489832 0.0 0.0 0.0 16.2900001489832 0.0 0.0 0.0 29.41887678731836" Properties=species:S:1:pos:R:3:initial_magmoms:R:1 pbc="T T T"
Si       1.54660519      -0.53113545      -1.79243332       0.00000000
Si      -1.11524599       1.83073538      -1.24959621       0.00000000
Si       1.26332209       1.99176203       0.82875918       0.00000000
Si      -0.92401768      -2.33546474      -0.15756750       0.00000000
Si      -0.17062146      -0.75823435       2.43473566       0.00000000
Si       0.95234599       2.92351746      -1.38665876       0.00000000
Si      -1.71077582       0.86094280       3.17288470       0.00000000
Si      -1.04510125      -2.93974230       2.15937497       0.00000000
Si       3.34536330      -1.74004895      -0.84361571       0.00000000
Si       3.49669251       1.17097408       1.15757396       0.00000000
