10
Lattice="16.2900001489832 0.0 0.0 0.0 16.2900001489832 0.0 0.0 0.0 29.41887678731836" Properties=species:S:1:pos:R:3:initial_magmoms:R:1 pbc="T T T"
Si       1.54015435      -1.61917714      -0.73814904       0.00000000
Si      -0.49832739      -0.72208684       2.21697714       0.00000000
Si      -2.16334460      -0.34399593      -1.07005281       0.00000000
Si       1.82151524       1.66591316      -0.18422101       0.00000000
H       -0.28577547       2.53723268      -1.92228825       0.00000000
Si       3.04021902      -1.50275251       1.13821634       0.00000000
Si      -2.18817056      -2.36336951       1.58906063       0.00000000
Si       1.71077582      -0.86094280      -3.17288470       0.00000000
Si       1.56141280      -1.56893878       3.11987188       0.00000000
Si      -3.71377794      -0.81565660       0.69051988       0.00000000
