10
Lattice="16.2900001489832 0.0 0.0 0.0 16.2900001489832 0.0 0.0 0.0 29.41887678731836" Properties=species:S:1:pos:R:3:initial_magmoms:R:1 pbc="T T T"
Si      -1.15005788      -1.90410391       0.81278473       0.00000000
Si      -1.66900337       1.38906460      -0.95793747       0.00000000
Si       0.29236641      -1.30692065      -2.00280771       0.00000000
Si       1.81088275       0.89800255       1.32120176       0.00000000
H       -0.01217840      -2.92439712       0.93440236       0.00000000
Si      -2.08042361      -2.10435688      -1.38339326       0.00000000
Si      -1.76410439       2.83151154       0.89959983       0.00000000
Si       3.41535003       1.20840850      -0.36417628       0.00000000
Si      -3.47680242      -0.15776865      -1.44637908       0.00000000
Si       1.67767942      -3.09979155      -1.35782826       0.00000000
