10
Lattice="16.2900001489832 0.0 0.0 0.0 16.2900001489832 0.0 0.0 0.0 29.41887678731836" Properties=species:S:1:pos:R:3:initial_magmoms:R:1 pbc="T T T"
Si      -0.20945682       1.07375536      -1.23088580       0.00000000
Si       0.21491397      -0.75282607       1.72244582       0.00000000
Si      -1.25962426       0.91324999       2.48071737       0.00000000
Si      -0.29229147      -2.91978705       0.91219111       0.00000000
Si       2.54049068      -0.22921659       1.83715002       0.00000000
Si       1.63447345       2.50323545      -0.98582656       0.00000000
Si       2.33430815       1.99277201       1.16251634       0.00000000
Si      -2.45100971       1.88962373      -1.15698559       0.00000000
Si       0.19927557       0.05178591      -3.32456843       0.00000000
Si      -3.16373794       1.12428694       1.04642945       0.00000000
