10
Lattice="16.2900001489832 0.0 0.0 0.0 16.2900001489832 0.0 0.0 0.0 29.41887678731836" Properties=species:S:1:pos:R:3:initial_magmoms:R:1 pbc="T T T"
H        0.72376471       0.61455655      -1.19405337       0.00000000
Si      -1.64040302      -1.37249767      -0.84567503       0.00000000
Si       1.27529524      -1.60466275       1.13812809       0.00000000
Si      -1.31114953       1.47098701       1.29290080       0.00000000
Si       2.66216069      -0.02814912       2.31108812       0.00000000
H        1.82615789       3.03896143      -0.90730758       0.00000000
Si      -3.29545074      -1.36980982       0.91642743       0.00000000
Si      -2.64064160       0.08703747       2.62045703       0.00000000
Si      -2.51673986      -0.29509335      -2.74080966       0.00000000
Si      -2.58965390       2.75581516      -0.19378214       0.00000000
