10
Lattice="16.2900001489832 0.0 0.0 0.0 16.2900001489832 0.0 0.0 0.0 29.41887678731836" Properties=species:S:1:pos:R:3:initial_magmoms:R:1 pbc="T T T"
Si       1.47551384      -0.34007004       0.19495890       0.00000000
Si      -2.27176937       0.47333853      -0.43063352       0.00000000
Si      -1.86429131      -1.33270120       1.22973847       0.00000000
Si      -0.97084996       2.55500670      -0.34308294       0.00000000
H        1.09739525       1.73496647       1.97471269       0.00000000
Si       1.80770278      -2.29425104      -1.10629686       0.00000000
Si       1.83332695      -0.85525759       2.45494643       0.00000000
Si       2.78725307       1.55957203      -0.31751794       0.00000000
Si      -0.04048423       2.75525967       1.85309505       0.00000000
Si      -0.37831750      -1.25511193       3.11666523       0.00000000
