10
Lattice="16.2900001489832 0.0 0.0 0.0 16.2900001489832 0.0 0.0 0.0 29.41887678731836" Properties=species:S:1:pos:R:3:initial_magmoms:R:1 pbc="T T T"
Si       1.31934340      -1.35583300      -1.41999034       0.00000000
Si      -1.29811753       1.29531565      -1.49818572       0.00000000
Si      -1.43754364      -1.45573957       1.23268036       0.00000000
Si       1.41659470       1.44814843       1.26586485       0.00000000
Si      -2.80732089       0.04597038       2.39160759       0.00000000
Si       2.58005909       0.04150692       2.75681352       0.00000000
Si       2.66108555      -2.72701118      -0.03409648       0.00000000
Si      -0.00902466       2.86983425       2.50795925       0.00000000
Si      -0.12090438      -2.66893733      -2.78347879       0.00000000
Si       2.74844883       2.71831232      -0.16556944       0.00000000
