10
Lattice="16.2900001489832 0.0 0.0 0.0 16.2900001489832 0.0 0.0 0.0 29.41887678731836" Properties=species:S:1:pos:R:3:initial_magmoms:R:1 pbc="T T T"
Si      -1.36371736       1.85640434       0.42913316       0.00000000
Si       0.95370930       0.27164960      -2.13148588       0.00000000
Si       1.92602373      -0.02828889       1.36274121       0.00000000
Si      -0.33008427      -2.26718113       0.78916137       0.00000000
H        2.09158878      -0.74864361      -2.00986824       0.00000000
H        1.69547951      -1.11868725       2.41849644       0.00000000
Si      -1.38442195       1.59314165       2.80447211       0.00000000
H       -1.66356740       0.14393274       3.08742286       0.00000000
H       -3.53248653       0.13529578       0.01773958       0.00000000
Si       3.28671930      -1.60854385       0.02447651       0.00000000
