10
Lattice="16.2900001489832 0.0 0.0 0.0 16.2900001489832 0.0 0.0 0.0 29.41887678731836" Properties=species:S:1:pos:R:3:initial_magmoms:R:1 pbc="T T T"
Si       1.25270101      -1.90218332       0.44907915       0.00000000
Si      -0.66204190       1.32646213       1.83359033       0.00000000
Si       1.74358388       1.07461873      -1.18681633       0.00000000
Si      -1.70766443      -0.69838489      -1.55008062       0.00000000
Si      -1.91384696       1.52360371      -2.22471430       0.00000000
Si       0.21797649       2.62233164      -2.08535708       0.00000000
Si       1.48724443      -1.51444873       2.69162129       0.00000000
Si      -0.31138335      -0.32508324       3.60725441       0.00000000
Si      -0.19546371      -3.62344989      -0.29918998       0.00000000
Si      -0.84447361      -2.70813107      -2.43629486       0.00000000
