10
Lattice="16.2900001489832 0.0 0.0 0.0 16.2900001489832 0.0 0.0 0.0 29.41887678731836" Properties=species:S:1:pos:R:3:initial_magmoms:R:1 pbc="T T T"
H       -0.59673529      -0.13036887       1.47250304       0.00000000
Si       1.47453823      -1.66607606      -0.75827155       0.00000000
Si       1.69073912       1.67545910       0.09096317       0.00000000
Si      -1.90411368       0.21103695      -1.43428792       0.00000000
H        1.25962426      -0.91324999      -2.48071737       0.00000000
H        1.67369978      -1.60023187       1.89328123       0.00000000
Si      -2.53341594      -2.05705235      -1.43890668       0.00000000
Si      -1.96188617      -0.03505608       3.09542480       0.00000000
Si       1.05016744       0.16050537      -3.71160317       0.00000000
Si       0.90534934      -2.40503933       2.91805839       0.00000000
