10
Lattice="16.2900001489832 0.0 0.0 0.0 16.2900001489832 0.0 0.0 0.0 29.41887678731836" Properties=species:S:1:pos:R:3:initial_magmoms:R:1 pbc="T T T"
Si       1.38955330       1.29261151      -1.31692308       0.00000000
Si      -1.16269876      -1.49408623      -1.36364113       0.00000000
Si      -1.38774511       1.48595752       1.19127035       0.00000000
Si       1.49631796      -1.38919492       1.18536009       0.00000000
H       -1.76689487      -0.58868803      -2.65762778       0.00000000
Si      -2.68830614       0.07881102       2.57584330       0.00000000
Si       0.11103264      -2.70774663       2.56186934       0.00000000
Si       2.57927717      -0.12398319      -2.76703658       0.00000000
Si       2.86664907       0.00001629       2.51350470       0.00000000
Si      -0.01358586       2.75310777       2.65477415       0.00000000
