10
Lattice="16.2900001489832 0.0 0.0 0.0 16.2900001489832 0.0 0.0 0.0 29.41887678731836" Properties=species:S:1:pos:R:3:initial_magmoms:R:1 pbc="T T T"
Si       1.33426504      -1.32872807       1.40790507       0.00000000
Si       1.31136130       1.35418608      -1.43770345       0.00000000
Si      -1.25485129      -1.48423241      -1.36127321       0.00000000
Si      -1.38595321       1.37744820       1.38371393       0.00000000
Si      -2.71134020      -0.07336364      -2.49595929       0.00000000
Si      -0.30299400       2.64265994      -2.56868275       0.00000000
Si       2.64580553      -2.65023804      -0.08200806       0.00000000
Si      -2.67165776      -2.73499491       0.07229395       0.00000000
Si       2.63596637       0.09876953       2.78031627       0.00000000
Si      -0.01562211       2.76665942       2.71185854       0.00000000
