10
Lattice="16.2900001489832 0.0 0.0 0.0 16.2900001489832 0.0 0.0 0.0 29.41887678731836" Properties=species:S:1:pos:R:3:initial_magmoms:R:1 pbc="T T T"
Si      -1.42278490       1.33537276       1.30961072       0.00000000
Si      -1.37033110      -1.38921121      -1.32814461       0.00000000
Si       1.27931887      -1.34400646       1.50483439       0.00000000
Si       1.32773275       1.43892829      -1.37248768       0.00000000
Si       2.65158848      -2.66788989       0.06845773       0.00000000
Si      -0.10510308       2.66442500       2.71342068       0.00000000
Si      -2.86664907      -0.00001629      -2.51350470       0.00000000
Si       2.68364720       2.74380618       0.05480737       0.00000000
Si      -2.72823293       0.02876814       2.73519065       0.00000000
Si      -2.75561643      -2.70776292       0.04836463       0.00000000
