10
Lattice="16.2900001489832 0.0 0.0 0.0 16.2900001489832 0.0 0.0 0.0 29.41887678731836" Properties=species:S:1:pos:R:3:initial_magmoms:R:1 pbc="T T T"
Si       1.30544803       1.30660462      -1.42557993       0.00000000
Si      -1.34289874       1.31903389       1.40489846       0.00000000
Si       1.25915185      -1.28269090       1.52213268       0.00000000
Si      -1.40629942      -1.33097446      -1.36315307       0.00000000
Si      -0.58795498      -2.10815408       2.80032404       0.00000000
Si      -2.42882273      -0.35526861       2.68067747       0.00000000
Si       2.62312985       2.63565686      -0.02176997       0.00000000
Si      -0.15200199       2.72432333      -2.59392120       0.00000000
Si       2.62412354      -2.73210181       0.19834207       0.00000000
Si      -0.02738349      -2.73653106      -2.68682602       0.00000000
