10
Lattice="16.2900001489832 0.0 0.0 0.0 16.2900001489832 0.0 0.0 0.0 29.41887678731836" Properties=species:S:1:pos:R:3:initial_magmoms:R:1 pbc="T T T"
Si      -2.27398628       0.00737937      -0.58217015       0.00000000
Si       1.32255253      -1.37575567      -1.40954664       0.00000000
Si      -0.12108357      -0.60427756       2.31694248       0.00000000
Si       0.92401768       2.33546474       0.15756750       0.00000000
Si       0.75339622       1.57723039       2.59230317       0.00000000
Si       2.47062287       1.80432929      -1.63486582       0.00000000
H        1.76824694      -2.70400970       1.27733821       0.00000000
Si      -3.35715726       0.73000378       1.34353068       0.00000000
Si       1.87199795       0.12282660      -3.18376968       0.00000000
Si       0.09845676      -3.37936053      -1.79052110       0.00000000
