10
Lattice="16.2900001489832 0.0 0.0 0.0 16.2900001489832 0.0 0.0 0.0 29.41887678731836" Properties=species:S:1:pos:R:3:initial_magmoms:R:1 pbc="T T T"
Si      -1.30544803      -1.30660462       1.42557993       0.00000000
Si       1.31768182       1.32905224       1.40380996       0.00000000
Si      -1.45745002       1.41771871      -1.16834127       0.00000000
Si       1.42278490      -1.33537276      -1.30961072       0.00000000
Si      -0.06571386       2.75524176      -2.47331558       0.00000000
Si      -2.71174745      -2.63757908       0.06242686       0.00000000
Si       0.05245380      -2.72458397      -2.63775533       0.00000000
Si       2.70210377      -2.67937922       0.19522367       0.00000000
Si       2.75051766       0.10355553      -2.68209840       0.00000000
Si      -2.83160928       0.15056847      -2.63184508       0.00000000
