10
Lattice="16.2900001489832 0.0 0.0 0.0 16.2900001489832 0.0 0.0 0.0 29.41887678731836" Properties=species:S:1:pos:R:3:initial_magmoms:R:1 pbc="T T T"
Si      -1.26460900      -1.36858807       1.43493513       0.00000000
Si       1.30616479      -1.39359322      -1.37500888       0.00000000
Si       1.81695404       0.88733260       1.20785082       0.00000000
Si      -1.44780634       1.52223535      -1.09585316       0.00000000
Si      -2.75085975       0.09848934      -2.52484568       0.00000000
Si       1.05611329       1.19475748       3.39079032       0.00000000
Si      -0.04227255       2.77035888      -2.53187679       0.00000000
Si       2.69627195      -2.64220544       0.09384622       0.00000000
Si       0.34466382      -2.44592723       2.86663419       0.00000000
Si       2.71782362       0.02285487      -2.63875557       0.00000000
