10
Lattice="16.2900001489832 0.0 0.0 0.0 16.2900001489832 0.0 0.0 0.0 29.41887678731836" Properties=species:S:1:pos:R:3:initial_magmoms:R:1 pbc="T T T"
Si      -1.86096962       1.28262574      -0.84826389       0.00000000
Si       1.73837108       1.31150791       1.05419603       0.00000000
Si       1.20233233      -1.24344829      -1.69485091       0.00000000
Si      -0.88334155      -1.99284694       1.05778513       0.00000000
H       -1.97384303       0.91308709       1.89136901       0.00000000
H        0.92318689      -2.69265720      -1.41190015       0.00000000
H       -1.39044925      -1.58717055       2.43355891       0.00000000
H        2.17447067      -2.54093377       1.31390588       0.00000000
Si      -3.15763734      -0.56764135      -1.77322280       0.00000000
Si      -2.95665132      -2.31316699      -0.12070565       0.00000000
