10
Lattice="16.2900001489832 0.0 0.0 0.0 16.2900001489832 0.0 0.0 0.0 29.41887678731836" Properties=species:S:1:pos:R:3:initial_magmoms:R:1 pbc="T T T"
H       -0.24837363       1.18161960       0.91507416       0.00000000
Si       0.78723055      -1.58919540       1.56308376       0.00000000
Si       1.38842929       0.47264621      -1.85586042       0.00000000
Si      -1.81199373      -1.43863230      -0.59732087       0.00000000
Si      -2.81210982       0.62306807       1.07611309       0.00000000
Si      -2.31839282       2.25977326      -0.52598010       0.00000000
H       -2.04253796      -2.52903067       0.45843436       0.00000000
Si       1.54502506      -1.85253954      -2.40552272       0.00000000
Si      -0.45129816      -3.01888726      -1.93558558       0.00000000
Si       1.86486293      -0.31667760       3.16452974       0.00000000
