10
Lattice="16.2900001489832 0.0 0.0 0.0 16.2900001489832 0.0 0.0 0.0 29.41887678731836" Properties=species:S:1:pos:R:3:initial_magmoms:R:1 pbc="T T T"
Si       1.30060990      -1.35451351       1.38805027       0.00000000
Si      -1.29459889      -1.52563996      -1.21723986       0.00000000
Si       1.35163018       1.28487376      -1.47507719       0.00000000
Si      -1.35166276       1.34193763       1.42640072       0.00000000
Si       2.61936686       0.08905743       2.68742910       0.00000000
Si      -2.64705986       2.66875814       0.00970823       0.00000000
Si       2.77518072      -2.60182253       0.02502075       0.00000000
Si      -2.80686477      -2.58802490       0.20998606       0.00000000
Si       2.67040343       2.75351502      -0.14459378       0.00000000
Si      -2.78252751      -0.33537852      -2.63700515       0.00000000
