10
Lattice="16.2900001489832 0.0 0.0 0.0 16.2900001489832 0.0 0.0 0.0 29.41887678731836" Properties=species:S:1:pos:R:3:initial_magmoms:R:1 pbc="T T T"
Si      -0.76084075       0.30742488       2.18293950       0.00000000
Si       0.97433749       1.87769945      -1.03077860       0.00000000
Si      -1.81695404      -0.88733260      -1.20785082       0.00000000
Si       1.77860738      -1.65538982       0.06127952       0.00000000
Si       0.00933417      -1.86688289       2.90434919       0.00000000
Si       2.25326540       0.58909528      -2.56347267       0.00000000
Si      -0.51078924      -2.28092582      -2.58285971       0.00000000
Si       0.87931792      -3.52953804      -1.11400461       0.00000000
Si      -3.08156304      -2.25592067       0.22708431       0.00000000
Si       3.56695617      -0.78724684      -1.19293545       0.00000000
