10
Lattice="16.2900001489832 0.0 0.0 0.0 16.2900001489832 0.0 0.0 0.0 29.41887678731836" Properties=species:S:1:pos:R:3:initial_magmoms:R:1 pbc="T T T"
Si      -0.59494339       1.11050560       0.85320626       0.00000000
Si       1.22544784       0.12325014      -2.66258486       0.00000000
Si      -2.83063188       0.82833022       0.01491537       0.00000000
Si       1.96230971       1.84120985      -1.24818410       0.00000000
Si       0.34262757       0.43927614       2.94391670       0.00000000
Si       0.38524221       3.06230826      -0.03330217       0.00000000
Si       1.98177626      -1.87111829      -1.58279441       0.00000000
Si       3.03872034      -1.55960461       0.59908601       0.00000000
Si      -0.93634921       0.64348759      -3.46292541       0.00000000
Si       3.62496486       0.61773310      -0.13520916       0.00000000
