10
Lattice="16.2900001489832 0.0 0.0 0.0 16.2900001489832 0.0 0.0 0.0 29.41887678731836" Properties=species:S:1:pos:R:3:initial_magmoms:R:1 pbc="T T T"
Si       0.50710770      -0.40567639      -1.37577377       0.00000000
H        0.46789767      -0.02794550       1.84759372       0.00000000
Si      -0.61541992       0.98476635       2.16743575       0.00000000
Si      -1.69906331       1.91389909       0.28759894       0.00000000
H       -0.58339378       2.50025764      -0.54218990       0.00000000
H       -1.10239318      -2.42440488      -0.28674579       0.00000000
Si       2.36338580      -1.79098452      -0.68701903       0.00000000
Si      -1.56620206      -0.72599644      -2.55426456       0.00000000
Si       1.39044925       1.58717055      -2.43355891       0.00000000
Si      -3.03290481       0.49047887      -1.04616468       0.00000000
