10
Lattice="16.2900001489832 0.0 0.0 0.0 16.2900001489832 0.0 0.0 0.0 29.41887678731836" Properties=species:S:1:pos:R:3:initial_magmoms:R:1 pbc="T T T"
Si       2.28750698      -0.54012753       0.18272064       0.00000000
Si      -1.32944320       1.29301876      -1.45935280       0.00000000
Si      -0.69706540      -2.25282557      -0.17224752       0.00000000
Si      -0.40873239       1.02196945       2.09368262       0.00000000
H       -1.74619028       0.16184115      -2.39369633       0.00000000
Si       1.43560513      -2.91797886       0.65542316       0.00000000
H       -0.19927557      -0.05178591       3.32456843       0.00000000
H        1.29834559       1.14823324      -2.85913238       0.00000000
Si      -3.25322706       1.25437888      -0.08057830       0.00000000
Si       1.43519788       2.45144954       2.33874187       0.00000000
