10
Lattice="16.2900001489832 0.0 0.0 0.0 16.2900001489832 0.0 0.0 0.0 29.41887678731836" Properties=species:S:1:pos:R:3:initial_magmoms:R:1 pbc="T T T"
Si      -0.04658940      -1.86598694       1.38421699       0.00000000
Si       2.16893207       0.31462506      -0.83202467       0.00000000
Si      -1.12394485       1.31119840       1.64848676       0.00000000
Si      -1.30878748      -0.52725843      -1.93788025       0.00000000
H       -1.03104298      -1.51068574       2.49248492       0.00000000
Si      -1.04054005       3.23216409       0.31192835       0.00000000
Si      -2.72538218      -2.10859391      -0.89015637       0.00000000
Si      -1.14422590      -3.51401367       0.12626582       0.00000000
Si       1.21520143       3.51499107      -0.15403724       0.00000000
Si       2.90059743      -1.84008584      -1.47156164       0.00000000
