10
Lattice="16.2900001489832 0.0 0.0 0.0 16.2900001489832 0.0 0.0 0.0 29.41887678731836" Properties=species:S:1:pos:R:3:initial_magmoms:R:1 pbc="T T T"
Si      -1.30170133      -1.42749760      -1.37241120       0.00000000
Si       1.30603447      -1.39543888       1.41034095       0.00000000
Si      -1.37226961       1.32388343       1.43637666       0.00000000
Si       1.32452362       1.40117948      -1.43273460       0.00000000
Si      -2.65158848       2.66788989      -0.06845773       0.00000000
Si       2.65732419      -2.72532191      -0.03212541       0.00000000
Si       2.67017537      -0.00369620       2.74728181       0.00000000
Si      -2.65707821      -2.76109475       0.04145120       0.00000000
Si      -2.63596637      -0.09876953      -2.78031627       0.00000000
Si       2.74647936       2.69204796      -0.04657008       0.00000000
