10
Lattice="16.2900001489832 0.0 0.0 0.0 16.2900001489832 0.0 0.0 0.0 29.41887678731836" Properties=species:S:1:pos:R:3:initial_magmoms:R:1 pbc="T T T"
Si      -1.07694820       1.55284426       1.44790886       0.00000000
Si       0.44025354       1.53578863      -1.78925609       0.00000000
Si      -2.04034370      -1.24665742      -0.38841743       0.00000000
Si       1.81022627      -1.16349697       1.19634804       0.00000000
Si       1.21854088      -2.50384633      -2.31420652       0.00000000
Si      -2.21585704       0.21388770       2.96842351       0.00000000
Si      -1.73991863       1.68850739      -2.81588663       0.00000000
Si       0.60434272      -2.58093712       2.74466353       0.00000000
Si       3.14522436       0.58238380       2.11883576       0.00000000
Si      -3.04240351      -0.30428091      -2.37548604       0.00000000
