10
Lattice="16.2900001489832 0.0 0.0 0.0 16.2900001489832 0.0 0.0 0.0 29.41887678731836" Properties=species:S:1:pos:R:3:initial_magmoms:R:1 pbc="T T T"
Si       1.78834880       0.86814298      -1.25421497       0.00000000
Si       0.53059788      -0.34865487       2.27163741       0.00000000
Si      -0.89928946      -1.87414823      -1.17528413       0.00000000
Si      -1.77860738       1.65538982      -0.06127952       0.00000000
Si      -1.76927321      -0.21149307       2.84306967       0.00000000
Si       0.47465802       2.24448509      -2.62475219       0.00000000
Si      -2.28939662      -0.62553601      -2.64413923       0.00000000
Si      -0.80426989       3.53308926      -1.09205813       0.00000000
Si      -2.53944812       1.96281470       2.12165998       0.00000000
Si       3.13500564       2.26012349       0.05669018       0.00000000
