10
Lattice="16.2900001489832 0.0 0.0 0.0 16.2900001489832 0.0 0.0 0.0 29.41887678731836" Properties=species:S:1:pos:R:3:initial_magmoms:R:1 pbc="T T T"
Si       1.52016652       1.13269258       1.37297898       0.00000000
Si       1.43029459      -1.27747810      -1.36256470       0.00000000
Si      -1.48571317       1.52296840      -1.02786614       0.00000000
Si      -1.11853657      -1.56120103       1.38318733       0.00000000
Si      -2.74043415       0.15363099      -2.54252643       0.00000000
Si      -2.68921838       2.44551998       0.90666036       0.00000000
Si       1.72361234      -0.27290637       3.33054046       0.00000000
Si       0.03503979      -2.61910622      -2.74584028       0.00000000
Si       0.41630724      -2.25189704       3.06079878       0.00000000
Si      -0.17741439       2.97642738      -2.42461557       0.00000000
