10
Lattice="16.2900001489832 0.0 0.0 0.0 16.2900001489832 0.0 0.0 0.0 29.41887678731836" Properties=species:S:1:pos:R:3:initial_magmoms:R:1 pbc="T T T"
Si      -0.09510102       1.44244693       1.85753730       0.00000000
Si       1.66900337      -1.38906460       0.95793747       0.00000000
Si       0.60232748       1.25960797      -1.97288872       0.00000000
Si      -1.80779906      -1.54683325      -0.48844161       0.00000000
H       -1.28475973       2.36156132       1.56829090       0.00000000
Si       2.66271455       1.95220991      -1.12171235       0.00000000
Si       1.96136977      -2.69598525      -1.04487025       0.00000000
Si      -0.41142024      -3.49342148      -0.42545580       0.00000000
Si       0.51894548      -3.29316851       1.77072219       0.00000000
Si      -2.28693683      -1.24556599      -2.79211618       0.00000000
