10
Lattice="16.2900001489832 0.0 0.0 0.0 16.2900001489832 0.0 0.0 0.0 29.41887678731836" Properties=species:S:1:pos:R:3:initial_magmoms:R:1 pbc="T T T"
Si      -0.73678042       1.98337268       0.95528977       0.00000000
Si       1.52560738      -1.54771291       0.89854075       0.00000000
Si       1.55043334       0.47166066      -1.76057268       0.00000000
Si      -2.13182345      -1.09872793      -0.13935722       0.00000000
Si       1.14337882      -1.65074717      -2.67744140       0.00000000
Si      -0.21797649      -2.62233164       2.08535708       0.00000000
Si       3.21545055       0.09356976       1.52645726       0.00000000
Si      -1.61311726       3.06077700      -0.93984486       0.00000000
Si      -2.83165815      -0.58826449      -2.28770012       0.00000000
Si       2.07795242      -3.00954495      -1.00627268       0.00000000
