10
Lattice="16.2900001489832 0.0 0.0 0.0 16.2900001489832 0.0 0.0 0.0 29.41887678731836" Properties=species:S:1:pos:R:3:initial_magmoms:R:1 pbc="T T T"
Si      -1.32600601       1.24374151      -1.47394456       0.00000000
Si      -1.35163018      -1.28487376       1.47507719       0.00000000
Si       1.29542968      -1.39307194      -1.43066940       0.00000000
Si       1.31877325       1.46864125       1.33048341       0.00000000
H        1.64146187       1.47950668      -2.61039578       0.00000000
Si      -2.58188357       2.63464688       0.05121826       0.00000000
Si       2.55078596       0.11267793      -2.71848073       0.00000000
Si       2.71977828      -2.61540839      -0.00817845       0.00000000
Si      -2.71287146      -0.33277212      -2.64690460       0.00000000
Si       0.18257832       2.47751354      -2.88999278       0.00000000
