10
Lattice="16.2900001489832 0.0 0.0 0.0 16.2900001489832 0.0 0.0 0.0 29.41887678731836" Properties=species:S:1:pos:R:3:initial_magmoms:R:1 pbc="T T T"
Si       0.69983470      -0.51046344       2.14834290       0.00000000
Si      -1.84393028      -1.42948009      -0.24505924       0.00000000
Si      -0.48632166       2.22995441       0.59611470       0.00000000
Si       1.77868883      -0.84344734      -1.33146894       0.00000000
H       -1.63447345      -2.50323545       0.98582656       0.00000000
Si      -1.43519788      -2.45144954      -2.33874187       0.00000000
Si       2.83165815       0.58826449       2.28770012       0.00000000
Si      -1.20335860       0.08547363       3.55750709       0.00000000
Si      -1.95968702       2.07984206       2.47771664       0.00000000
Si       0.85230910      -2.99157708      -2.15602122       0.00000000
