10
Lattice="16.2900001489832 0.0 0.0 0.0 16.2900001489832 0.0 0.0 0.0 29.41887678731836" Properties=species:S:1:pos:R:3:initial_magmoms:R:1 pbc="T T T"
Si      -1.00380610      -1.61095069       1.41722497       0.00000000
Si      -1.15719274      -0.18935496      -2.08932863       0.00000000
Si       2.14547447      -1.02354958      -0.48858871       0.00000000
Si       0.06830397       2.30071817       0.83105385       0.00000000
Si      -2.08575533       1.98677566      -2.15096118       0.00000000
Si       3.44639388       1.05811859      -0.40103813       0.00000000
Si       2.05001507       3.00470682      -0.46402394       0.00000000
Si       1.60384825      -2.22018041      -2.55229349       0.00000000
Si      -2.00142200       3.19008702      -0.00008826       0.00000000
Si      -1.09589347      -3.61893756       0.19548844       0.00000000
