10
Lattice="16.2900001489832 0.0 0.0 0.0 16.2900001489832 0.0 0.0 0.0 29.41887678731836" Properties=species:S:1:pos:R:3:initial_magmoms:R:1 pbc="T T T"
H        0.77393791       0.75890224       1.07702508       0.00000000
Si      -1.19801548      -1.37231848       1.39333684       0.00000000
Si       1.82001656      -0.73770895      -1.22182479       0.00000000
Si      -1.08512578       1.79957261      -0.98094303       0.00000000
H       -0.78716539       1.75700684      -2.46456640       0.00000000
Si       0.38988486       3.18720369       0.33828766       0.00000000
Si       2.58085730       2.12258702       0.83399574       0.00000000
Si      -2.34541793      -2.83823931       0.02462360       0.00000000
Si       0.41633982      -2.66079233       2.52431614       0.00000000
Si      -2.38773935       0.04427622       2.84345035       0.00000000
