10
Lattice="16.2900001489832 0.0 0.0 0.0 16.2900001489832 0.0 0.0 0.0 29.41887678731836" Properties=species:S:1:pos:R:3:initial_magmoms:R:1 pbc="T T T"
Si      -1.28085013       0.94755673       1.70452972       0.00000000
Si       1.10698696       1.64605564      -1.28792901       0.00000000
Si      -1.66071665      -1.19311219      -1.24044694       0.00000000
Si       1.39623220      -1.49392333       1.27283712       0.00000000
H       -2.18931086       1.93774439       0.66569034       0.00000000
Si      -0.43396560      -2.44973909       2.56800317       0.00000000
Si       2.44058411       0.29579382      -2.72380555       0.00000000
Si      -0.31856724      -2.46345527      -2.75072382       0.00000000
Si      -2.08108010      -0.78156163       3.01405218       0.00000000
Si       2.72888454      -0.06877638       2.63778475       0.00000000
