10
Lattice="16.2900001489832 0.0 0.0 0.0 16.2900001489832 0.0 0.0 0.0 29.41887678731836" Properties=species:S:1:pos:R:3:initial_magmoms:R:1 pbc="T T T"
Si       1.07512372      -1.25444404       1.60250506       0.00000000
Si       1.89407090       0.04751793      -1.44443743       0.00000000
Si      -0.39651489       2.04846752       1.29301847       0.00000000
Si      -2.02183337      -1.25543773      -0.67098574       0.00000000
Si       1.22370481       2.05208390      -2.40161001       0.00000000
Si      -2.52918542       2.71362080       0.46534779       0.00000000
Si       1.42372972      -3.41179392       0.71558476       0.00000000
Si       0.29093940      -0.75805516       3.73051951       0.00000000
Si      -0.30232611       1.52857216       3.65426578       0.00000000
Si       1.89420122      -1.66781094      -3.09054126       0.00000000
