10
Lattice="16.2900001489832 0.0 0.0 0.0 16.2900001489832 0.0 0.0 0.0 29.41887678731836" Properties=species:S:1:pos:R:3:initial_magmoms:R:1 pbc="T T T"
Si      -0.35693019      -0.38105568      -2.25498632       0.00000000
Si      -1.53018487       1.34467435       1.13836344       0.00000000
Si       2.06759198       1.09278208      -0.13706255       0.00000000
Si       1.11524599      -1.83073538       1.24959621       0.00000000
H       -0.88130530       1.56744010       2.50019266       0.00000000
Si       2.37856808       0.16102665       2.07835539       0.00000000
H       -1.88711507       2.73483039       0.67875233       0.00000000
Si       3.01355229      -0.37875879      -1.79413962       0.00000000
Si       2.66185118      -2.36187083      -0.54283711       0.00000000
Si      -3.43358994       0.06460614       1.59212019       0.00000000
