10
Lattice="16.2900001489832 0.0 0.0 0.0 16.2900001489832 0.0 0.0 0.0 29.41887678731836" Properties=species:S:1:pos:R:3:initial_magmoms:R:1 pbc="T T T"
Si      -1.09893970      -1.97122034      -0.44375434       0.00000000
Si       0.35693019       0.38105568       2.25498632       0.00000000
Si      -1.67224997       1.14334624      -1.18063836       0.00000000
Si       1.88450867      -0.07529238      -1.42608005       0.00000000
Si      -1.76433734      -0.86464063      -2.40237490       0.00000000
Si       3.37048248       0.00229689       0.46084670       0.00000000
Si       2.42452217       1.47383776       2.11792378       0.00000000
Si       0.46141425      -3.56200401      -1.06608126       0.00000000
Si       1.57177324      -2.19209645      -2.61224916       0.00000000
Si       1.47703060       1.73074736      -3.08645204       0.00000000
