10
Lattice="16.2900001489832 0.0 0.0 0.0 16.2900001489832 0.0 0.0 0.0 29.41887678731836" Properties=species:S:1:pos:R:3:initial_magmoms:R:1 pbc="T T T"
Si       1.26426691      -1.32901966       1.50700550       0.00000000
Si      -1.40598991      -1.46803852      -1.24656607       0.00000000
Si      -1.35314515       1.28736613       1.51524573       0.00000000
Si       1.30756573       1.42079752      -1.48462362       0.00000000
Si      -2.84426009      -0.04922838      -2.45062186       0.00000000
Si      -2.71579878       2.67217904       0.20191940       0.00000000
Si       2.60820821       2.79135669       0.00788132       0.00000000
Si       2.59421510      -2.82367116       0.23958733       0.00000000
Si      -0.25013295       2.70067025      -2.72171680       0.00000000
Si      -0.02406033      -2.84405321      -2.67438183       0.00000000
