10
Lattice="16.2900001489832 0.0 0.0 0.0 16.2900001489832 0.0 0.0 0.0 29.41887678731836" Properties=species:S:1:pos:R:3:initial_magmoms:R:1 pbc="T T T"
Si      -1.54538344       1.55448955       0.99588782       0.00000000
Si       0.76900855       1.69560983      -1.55369914       0.00000000
Si      -0.80550793      -2.03698307      -1.10320788       0.00000000
Si       1.14973681      -0.32263974       2.14837232       0.00000000
Si       3.01573515       1.07732287       1.47812205       0.00000000
H        2.62669736      -0.56606122      -2.43538288       0.00000000
Si       2.43934607       2.70974378      -0.15397840       0.00000000
Si      -3.10537902      -1.89982127      -0.53177562       0.00000000
Si      -2.65574243       0.18458199       2.54205572       0.00000000
Si       1.79889983       0.57179530      -3.31815511       0.00000000
