10
Lattice="16.2900001489832 0.0 0.0 0.0 16.2900001489832 0.0 0.0 0.0 29.41887678731836" Properties=species:S:1:pos:R:3:initial_magmoms:R:1 pbc="T T T"
Si      -1.42680853       1.44197452       1.18537480       0.00000000
Si       1.30460095       1.33516099      -1.44202508       0.00000000
Si      -1.36265851      -1.39483126      -1.34935562       0.00000000
Si       1.33791400      -1.30456837       1.48124045       0.00000000
Si       2.63234999       2.67454109      -0.03883292       0.00000000
Si       2.67151115      -2.65483019       0.04536391       0.00000000
Si      -2.78618135       0.12497688       2.55208756       0.00000000
Si       2.65570985      -0.02660157      -2.79176315       0.00000000
Si      -2.69935891      -0.04688262      -2.76546267       0.00000000
Si      -2.72653226      -2.75858121       0.04971790       0.00000000
