10
Lattice="16.2900001489832 0.0 0.0 0.0 16.2900001489832 0.0 0.0 0.0 29.41887678731836" Properties=species:S:1:pos:R:3:initial_magmoms:R:1 pbc="T T T"
Si      -1.35937282      -1.31699764       1.36671276       0.00000000
Si      -1.40329880       1.27768987      -1.36577135       0.00000000
Si       1.42680853      -1.44197452      -1.18537480       0.00000000
Si       0.86713300       1.84772585       1.17446040       0.00000000
H       -0.53157528      -2.45485415       2.24948499       0.00000000
Si      -2.70598079       2.54080019       0.15297816       0.00000000
Si      -0.00001629       2.65916333      -2.67844164       0.00000000
Si       2.73140948      -0.10681353      -2.62739989       0.00000000
Si       0.06415002      -2.83680579      -2.53473042       0.00000000
Si      -0.85532275       3.53067834       1.19952528       0.00000000
