10
Lattice="16.2900001489832 0.0 0.0 0.0 16.2900001489832 0.0 0.0 0.0 29.41887678731836" Properties=species:S:1:pos:R:3:initial_magmoms:R:1 pbc="T T T"
H       -0.23054423      -1.09039836       1.05575523       0.00000000
Si      -1.92602373       0.02828889      -1.36274121       0.00000000
Si       1.81199373       1.43863230       0.59732087       0.00000000
Si       1.36069557      -1.58025496      -1.33826471       0.00000000
Si      -1.00011609       2.06170037       1.67343397       0.00000000
Si      -2.25610801      -2.23889224      -0.57357984       0.00000000
H       -0.49382321      -0.33426543       3.19844970       0.00000000
Si       2.59922428      -0.15056310       2.16040464       0.00000000
H        1.56362010       2.62025190       1.51239504       0.00000000
H        0.16556505      -0.72035472      -3.37260945       0.00000000
