10
Lattice="16.2900001489832 0.0 0.0 0.0 16.2900001489832 0.0 0.0 0.0 29.41887678731836" Properties=species:S:1:pos:R:3:initial_magmoms:R:1 pbc="T T T"
Si      -1.36974303       1.37054287      -1.33276337       0.00000000
Si       1.40208031       1.44647056       1.23188605       0.00000000
Si       1.38764737      -1.38038203      -1.32184897       0.00000000
Si      -1.40328251      -1.38147346       1.31267028       0.00000000
Si       2.68939757       0.07511319       2.61316115       0.00000000
Si       0.00001629      -2.65916333       2.67844164       0.00000000
Si       0.05571180       2.69324201       2.70018219       0.00000000
Si       2.77522959       0.03398094      -2.62187208       0.00000000
Si      -2.69052158      -2.72269433      -0.07551826       0.00000000
Si      -2.72103275       2.70042590       0.10970299       0.00000000
