10
Lattice="16.28999089631971 0.0 0.0 0.0 16.28999089631971 0.0 0.0 0.0 34.642051614445585" Properties=species:S:1:pos:R:3:initial_magmoms:R:1 pbc="T T T"
Si       1.35635427       1.34266627       1.38175096       0.00000000
Si      -1.35916429      -1.37682284       1.37991493       0.00000000
Si       1.38619755      -1.28682059      -1.48534115       0.00000000
Si      -1.35281771       1.46029636      -1.39052580       0.00000000
Si       2.70542691       2.69936589      -0.01633027       0.00000000
Si      -2.71238492       2.70267276       0.04683608       0.00000000
Si       2.70638802      -2.71235849       0.01124135       0.00000000
Si      -2.71921206      -2.71835321      -0.00298615       0.00000000
Si      -0.00141723       2.69943105       2.74301114       0.00000000
Si      -2.71485574      -0.01559623       2.74290722       0.00000000
