10
Lattice="16.28999089631971 0.0 0.0 0.0 16.28999089631971 0.0 0.0 0.0 34.642051614445585" Properties=species:S:1:pos:R:3:initial_magmoms:R:1 pbc="T T T"
Si       1.17778329       0.96018147       1.79102971       0.00000000
Si      -2.10057921       0.94718205       0.49278346       0.00000000
Si       0.00902466       0.56720151      -2.30598410       0.00000000
Si       0.69305805      -2.26787751       0.41858014       0.00000000
Si      -2.07443702      -0.53349750      -2.67748567       0.00000000
Si       3.26498841       0.20421144       1.16657174       0.00000000
Si       3.03712389      -2.07611163       0.67032407       0.00000000
Si       0.64712025      -0.39938193       3.69222121       0.00000000
Si      -3.00925889      -0.20957085       2.29801642       0.00000000
Si      -3.62420639       0.54485163      -1.26256492       0.00000000
