10
Lattice="16.28999089631971 0.0 0.0 0.0 16.28999089631971 0.0 0.0 0.0 34.642051614445585" Properties=species:S:1:pos:R:3:initial_magmoms:R:1 pbc="T T T"
Si       0.72206240      -1.74144987      -1.34671051       0.00000000
Si      -1.58133450       1.30600188      -1.08606357       0.00000000
Si      -0.69194218      -0.93142962       2.02676900       0.00000000
Si       2.07504463       1.11619080       0.30814122       0.00000000
Si       1.63894505      -3.30269976       0.13222878       0.00000000
Si       0.15186515       0.55172601       3.66267152       0.00000000
Si       2.12098244      -0.75230478      -2.96549984       0.00000000
Si       0.51195397      -3.00576564       2.24106486       0.00000000
Si      -2.39161539       2.95766127       0.42045082       0.00000000
Si      -0.67265482       2.46275478      -2.89129653       0.00000000
