10
Lattice="16.28999089631971 0.0 0.0 0.0 16.28999089631971 0.0 0.0 0.0 34.642051614445585" Properties=species:S:1:pos:R:3:initial_magmoms:R:1 pbc="T T T"
Si      -1.34907264      -1.35669962       1.39808124       0.00000000
Si       1.37005416       1.35695700       1.39943228       0.00000000
Si       1.28081754      -1.47792002      -1.52079038       0.00000000
Si      -1.44184419       1.46354247      -1.41747040       0.00000000
Si      -2.70542691      -2.69936589       0.01633027       0.00000000
Si       2.69894349       2.70904329       0.03018017       0.00000000
Si      -2.70697446       2.71088406       0.07436960       0.00000000
Si       2.71844262      -2.71851497       0.01372519       0.00000000
Si      -2.70684414       0.00006516       2.75934142       0.00000000
Si       0.00878031       2.71326240       2.75871786       0.00000000
