10
Lattice="16.28999089631971 0.0 0.0 0.0 16.28999089631971 0.0 0.0 0.0 34.642051614445585" Properties=species:S:1:pos:R:3:initial_magmoms:R:1 pbc="T T T"
Si      -1.35700587      -1.35667030       1.35647957       0.00000000
Si       1.35764118      -1.35799793      -1.35689528       0.00000000
Si      -1.35840681       1.35742941      -1.35706849       0.00000000
Si       1.35835794       1.35852084       1.35706849       0.00000000
Si      -0.00226431      -2.70874097       2.71614622       0.00000000
Si       2.71293660       0.00272043       2.71299379       0.00000000
Si       2.71368594       0.00003258      -2.71389448       0.00000000
Si      -0.00092853       2.71389771      -2.71455268       0.00000000
Si       2.71437012      -2.71463122       0.00024249       0.00000000
Si      -2.71480995       2.71456560       0.00000000       0.00000000
