10
Lattice="16.28999089631971 0.0 0.0 0.0 16.28999089631971 0.0 0.0 0.0 34.642051614445585" Properties=species:S:1:pos:R:3:initial_magmoms:R:1 pbc="T T T"
Si      -0.02974554       2.33452967       0.19763301       0.00000000
Si      -1.58096079      -0.41852477      -1.72223056       0.00000000
Si       2.28115386      -0.30601351      -0.60135171       0.00000000
Si      -0.46851669      -1.56771443       1.75403198       0.00000000
Si      -0.07211583      -1.62699374      -3.06727825       0.00000000
Si      -0.57462975      -3.49452821       0.20715958       0.00000000
Si      -1.09227708       2.95592801      -1.87032541       0.00000000
Si       3.36900006      -0.19089274       1.55522113       0.00000000
Si       2.58761763       1.13441931      -2.56160794       0.00000000
Si       0.72861912      -3.36481094      -1.73955159       0.00000000
