10
Lattice="16.28999089631971 0.0 0.0 0.0 16.28999089631971 0.0 0.0 0.0 34.642051614445585" Properties=species:S:1:pos:R:3:initial_magmoms:R:1 pbc="T T T"
Si       2.15133885       0.46910313      -0.68352270       0.00000000
Si      -1.63952334       0.49728483      -1.73463242       0.00000000
Si       0.59541579      -0.49853916       2.38333984       0.00000000
Si      -0.24099426      -0.21253563      -3.49774062       0.00000000
Si       2.72914515       2.60071479       0.26567004       0.00000000
Si       2.10465171       0.48208626      -3.10999192       0.00000000
Si       3.51569151      -1.47700453       0.05948044       0.00000000
Si      -1.41690420       2.78164782      -2.42865167       0.00000000
Si       2.53373031      -2.15186176       2.31966771       0.00000000
Si      -1.01465523      -1.73750117       3.71153212       0.00000000
