10
Lattice="16.28999089631971 0.0 0.0 0.0 16.28999089631971 0.0 0.0 0.0 34.642051614445585" Properties=species:S:1:pos:R:3:initial_magmoms:R:1 pbc="T T T"
Si      -1.35257499       1.35531171       1.35602923       0.00000000
Si      -1.35653346      -1.35786924      -1.35741491       0.00000000
Si       1.35746199       1.35754344      -1.35696456       0.00000000
Si       1.35742941      -1.35871632       1.35866202       0.00000000
Si       0.00193851       2.69680950       2.72390604       0.00000000
Si       0.02262681      -2.71072116       2.70997993       0.00000000
Si      -2.71349860      -2.71500543       0.00152425       0.00000000
Si      -2.71457537      -0.00026064      -2.71427554       0.00000000
Si       2.71534752       2.71384884       0.00107390       0.00000000
Si      -0.00013032      -2.71500543      -2.71448340       0.00000000
