10
Lattice="16.28999089631971 0.0 0.0 0.0 16.28999089631971 0.0 0.0 0.0 34.642051614445585" Properties=species:S:1:pos:R:3:initial_magmoms:R:1 pbc="T T T"
Si       1.35873261       1.33043688      -1.38810778       0.00000000
Si      -1.35342207      -1.38666996      -1.39209162       0.00000000
Si       1.50271992      -1.34366436       1.34092528       0.00000000
Si      -1.32398604       1.51348761       1.65301570       0.00000000
Si      -2.70891297       2.66885586      -0.02684761       0.00000000
Si       2.72266173       2.67483429       0.01306006       0.00000000
Si      -2.68822467      -2.73867480      -0.04077372       0.00000000
Si       0.00449604       2.68589520      -2.74967974       0.00000000
Si      -2.71085148      -0.02795364      -2.75075365       0.00000000
Si       2.72170062      -0.02697624      -2.75078829       0.00000000
