10
Lattice="16.28999089631971 0.0 0.0 0.0 16.28999089631971 0.0 0.0 0.0 34.642051614445585" Properties=species:S:1:pos:R:3:initial_magmoms:R:1 pbc="T T T"
Si       0.02396259      -1.38422646      -1.93881279       0.00000000
Si      -1.23046515       1.94064399      -0.69270285       0.00000000
Si       2.38518180       0.38276613       0.42474643       0.00000000
Si      -1.11799899      -0.52419591       2.12515249       0.00000000
Si       0.99655704       0.40984011      -3.28327156       0.00000000
Si       2.89417914       0.94126878      -1.88525614       0.00000000
Si      -1.47119877       3.09676158       1.36496688       0.00000000
Si      -3.10930488       1.13526639      -1.63493254       0.00000000
Si      -0.39166047      -2.77583229       2.41288953       0.00000000
Si      -0.29072763       0.92839968       3.83640151       0.00000000
