10
Lattice="16.28999089631971 0.0 0.0 0.0 16.28999089631971 0.0 0.0 0.0 34.642051614445585" Properties=species:S:1:pos:R:3:initial_magmoms:R:1 pbc="T T T"
Si       1.87883973       0.80537760       0.94222969       0.00000000
Si      -1.30241808      -0.61175466      -1.74779641       0.00000000
Si       1.27915596       2.13172569      -1.33624860       0.00000000
Si      -1.86698061      -2.55915900      -0.53916919       0.00000000
Si      -1.38269520      -2.57452047       1.81233459       0.00000000
Si       3.10930488      -1.13526639       1.63493254       0.00000000
Si      -0.08508267      -2.12043672      -3.03003802       0.00000000
Si      -0.34580412      -1.21875264       3.63488858       0.00000000
Si       1.63810611       1.96149519       2.99989942       0.00000000
Si       2.60314200       0.61823808      -2.98926430       0.00000000
