10
Lattice="16.28999089631971 0.0 0.0 0.0 16.28999089631971 0.0 0.0 0.0 34.642051614445585" Properties=species:S:1:pos:R:3:initial_magmoms:R:1 pbc="T T T"
Si      -0.52300674       1.38991167       1.84583347       0.00000000
Si      -0.22261914      -2.28436299       0.69401925       0.00000000
Si      -1.30805442       0.73577043      -1.88373189       0.00000000
Si       2.20257090       0.96622506      -0.48197513       0.00000000
Si       1.17590994      -2.99418345      -1.06908895       0.00000000
Si      -0.47565171       2.99511198      -1.71412431       0.00000000
Si      -0.94343535       3.39602517       0.55118999       0.00000000
Si      -2.38037625       0.14318910       2.73578827       0.00000000
Si       1.76244768       2.51335152      -2.20403248       0.00000000
Si      -0.33541110      -0.13260060      -3.82621674       0.00000000
