10
Lattice="16.28999089631971 0.0 0.0 0.0 16.28999089631971 0.0 0.0 0.0 34.642051614445585" Properties=species:S:1:pos:R:3:initial_magmoms:R:1 pbc="T T T"
Si      -1.91694923      -0.35432379       1.23024387       0.00000000
Si       1.03909023       1.91563884       0.87384624       0.00000000
Si      -0.87409859       0.70911999      -2.12730029       0.00000000
Si       1.75513347      -1.67751976      -0.21817576       0.00000000
Si       1.36094805       1.02495051      -2.89773995       0.00000000
Si      -0.91672952      -1.31020470       3.15554625       0.00000000
Si       2.39783913       2.38071834      -1.07518596       0.00000000
Si       2.16533196      -1.19394460      -2.54477189       0.00000000
Si      -3.13702136      -2.08615116       0.25849913       0.00000000
Si      -0.73092253       3.54199986       1.37851193       0.00000000
