10
Lattice="16.28999089631971 0.0 0.0 0.0 16.28999089631971 0.0 0.0 0.0 34.642051614445585" Properties=species:S:1:pos:R:3:initial_magmoms:R:1 pbc="T T T"
Si       2.23504664       0.31583052      -0.77043966       0.00000000
Si      -1.83218258      -1.28801772      -0.87938897       0.00000000
Si       0.87409859      -0.70911999       2.12730029       0.00000000
Si      -1.44122258       1.95036912      -0.48110908       0.00000000
Si       1.75076123       0.33119199      -3.12194344       0.00000000
Si       3.03943055      -1.90306459      -0.41747160       0.00000000
Si      -1.04285063      -1.06344378       3.35754416       0.00000000
Si      -3.58606172       0.62103996      -0.86508180       0.00000000
Si       1.91318882       1.20651885       3.00114653       0.00000000
Si      -0.91385012       3.43021788       1.39333874       0.00000000
