10
Lattice="16.28999089631971 0.0 0.0 0.0 16.28999089631971 0.0 0.0 0.0 34.642051614445585" Properties=species:S:1:pos:R:3:initial_magmoms:R:1 pbc="T T T"
Si       1.35654975      -1.35866745      -1.36101768       0.00000000
Si      -1.36045935       1.35819504      -1.36268050       0.00000000
Si      -1.35685926      -1.37570679       1.36181445       0.00000000
Si       1.38587175       1.34783460       1.36877751       0.00000000
Si      -0.02142135       2.70860346       2.61433317       0.00000000
Si       2.71078632      -2.71412577       0.00055427       0.00000000
Si       2.71257822       2.71270854      -0.00526559       0.00000000
Si      -2.71137276      -2.71720458      -0.00606236       0.00000000
Si      -2.71518462       2.71528236      -0.00471132       0.00000000
Si       2.71362078       0.00047241      -2.71912543       0.00000000
