10
Lattice="16.28999089631971 0.0 0.0 0.0 16.28999089631971 0.0 0.0 0.0 34.642051614445585" Properties=species:S:1:pos:R:3:initial_magmoms:R:1 pbc="T T T"
Si      -0.67258152       1.66961097      -1.49494393       0.00000000
Si       2.23809939      -0.48176046      -0.48990817       0.00000000
Si      -0.46778364       0.40091319       2.26531431       0.00000000
Si      -0.83240271      -2.25934155      -0.16960758       0.00000000
Si       0.47565171      -2.99511198       1.71412431       0.00000000
Si      -2.72891709       0.73261017      -2.08489840       0.00000000
Si      -2.62062117       1.30344435       2.05590299       0.00000000
Si       2.67822261      -2.02888692       1.23214918       0.00000000
Si       2.01526848      -1.70478108      -2.51258941       0.00000000
Si       0.14024061      -3.12771258      -2.11209243       0.00000000
