10
Lattice="16.28999089631971 0.0 0.0 0.0 16.28999089631971 0.0 0.0 0.0 34.642051614445585" Properties=species:S:1:pos:R:3:initial_magmoms:R:1 pbc="T T T"
Si       1.36590021       1.34006427       1.37452809       0.00000000
Si      -1.34918667      -1.37455020       1.37002462       0.00000000
Si       1.34330598      -1.25190279      -1.49276494       0.00000000
Si      -1.32019047       1.42553790      -1.49658250       0.00000000
Si      -0.63702045      -2.02237092      -2.56587168       0.00000000
Si      -2.53439820      -0.23794803      -2.73029546       0.00000000
Si       0.40180914       2.15417331      -3.08724736       0.00000000
Si       2.71748151       2.69320941      -0.01384644       0.00000000
Si      -2.70638802       2.71235849      -0.01124135       0.00000000
Si       0.00972513       2.69498502       2.73125016       0.00000000
