10
Lattice="16.28999089631971 0.0 0.0 0.0 16.28999089631971 0.0 0.0 0.0 34.642051614445585" Properties=species:S:1:pos:R:3:initial_magmoms:R:1 pbc="T T T"
Si       1.35666378       1.35802258      -1.35682599       0.00000000
Si       1.35539316      -1.35967743       1.35717241       0.00000000
Si      -1.35824391      -1.35777150      -1.35720706       0.00000000
Si      -1.35997065       1.36391283       1.35907773       0.00000000
Si      -0.02272455       2.73477239       2.68025703       0.00000000
Si       2.71370223       0.00034209      -2.71417162       0.00000000
Si       2.71381626      -2.71453302       0.00000000       0.00000000
Si      -0.00089595      -2.71423980      -2.71437947       0.00000000
Si      -0.00006516       2.71465587      -2.71396377       0.00000000
Si       2.71337643       2.71547688       0.00090069       0.00000000
