10
Lattice="16.28999089631971 0.0 0.0 0.0 16.28999089631971 0.0 0.0 0.0 34.642051614445585" Properties=species:S:1:pos:R:3:initial_magmoms:R:1 pbc="T T T"
Si      -1.53924210       0.87905727      -1.52923958       0.00000000
Si       0.92652633       2.20931074       0.46046241       0.00000000
Si       1.32540327      -1.86052977      -0.85832659       0.00000000
Si      -1.57090986       0.31829031       1.84188427       0.00000000
Si      -1.24766739       2.65479337       1.31996683       0.00000000
Si       0.09705582       2.05924368      -2.74108851       0.00000000
Si      -2.95617888       2.28750437      -0.20480392       0.00000000
Si       2.59563231       1.85251509       2.00650339       0.00000000
Si       2.77395894      -0.69447528      -2.50649240       0.00000000
Si       2.69579952      -2.51447553       1.07456240       0.00000000
