10
Lattice="16.28999089631971 0.0 0.0 0.0 16.28999089631971 0.0 0.0 0.0 34.642051614445585" Properties=species:S:1:pos:R:3:initial_magmoms:R:1 pbc="T T T"
Si      -1.25955909       1.37468867       1.40601081       0.00000000
Si       1.43738073      -1.37938737       1.39076137       0.00000000
Si       2.03884011       0.81147821      -1.09933910       0.00000000
Si      -1.86114879      -0.55017194      -1.54343386       0.00000000
Si      -2.64655485      -2.65901574      -0.17608565       0.00000000
Si       1.32851466       1.26082156      -3.28998316       0.00000000
Si      -2.61166167      -0.01616457       2.76820286       0.00000000
Si      -2.67525783       2.72428259      -0.03671020       0.00000000
Si       2.72694600      -2.68892418      -0.11953593       0.00000000
Si       0.10518453       2.69815343       2.77083565       0.00000000
