10
Lattice="16.28999089631971 0.0 0.0 0.0 16.28999089631971 0.0 0.0 0.0 34.642051614445585" Properties=species:S:1:pos:R:3:initial_magmoms:R:1 pbc="T T T"
Si      -1.35672894       1.35663329      -1.35713777       0.00000000
Si      -1.35666378      -1.35802258       1.35682599       0.00000000
Si       1.35671265       1.35745431       1.35772669       0.00000000
Si       1.35703845      -1.35768049      -1.35734562       0.00000000
Si      -2.71339272      -0.00147283      -2.71469125       0.00000000
Si      -0.00068418       2.71466380      -2.71413698       0.00000000
Si      -2.71437012       2.71463122      -0.00024249       0.00000000
Si      -0.00070047      -2.71475152      -2.71455268       0.00000000
Si       2.71526607       2.71461493      -0.00013857       0.00000000
Si      -0.00143352       2.71735165       2.71275129       0.00000000
