10
Lattice="16.28999089631971 0.0 0.0 0.0 16.28999089631971 0.0 0.0 0.0 34.642051614445585" Properties=species:S:1:pos:R:3:initial_magmoms:R:1 pbc="T T T"
Si      -1.64196684      -1.48565682      -0.77144428       0.00000000
Si       0.91714329      -1.14337134       1.84919375       0.00000000
Si       0.57026403       1.29448322      -1.91681507       0.00000000
Si      -0.71171010       2.12289488       0.81841893       0.00000000
Si      -2.96829864       1.50538985       0.45578573       0.00000000
Si      -3.03529941       0.22618828      -1.60794637       0.00000000
Si       0.27318330       3.43950155      -0.86795709       0.00000000
Si      -1.46070801       1.20977522      -3.16753240       0.00000000
Si      -2.20952673      -2.85919704       1.04625983       0.00000000
Si       0.11924280       2.21872895       3.03738214       0.00000000
