10
Lattice="16.28999089631971 0.0 0.0 0.0 16.28999089631971 0.0 0.0 0.0 34.642051614445585" Properties=species:S:1:pos:R:3:initial_magmoms:R:1 pbc="T T T"
Si      -1.78012233      -1.06953624       1.19569637       0.00000000
Si      -0.60606945       0.55001556      -2.25977196       0.00000000
Si       1.18858356       1.74135213       1.21804050       0.00000000
Si       1.66017906      -1.82413791      -0.08497739       0.00000000
Si      -0.31304493      -2.38413924       2.62603284       0.00000000
Si       2.42274654       0.34225290       2.64990815       0.00000000
Si       2.01262950      -2.23288659      -2.37079980       0.00000000
Si       1.20896235      -0.28810494      -3.62972730       0.00000000
Si       3.63965841      -1.02464100       1.19903586       0.00000000
Si       3.11347512       2.45672748      -0.21575120       0.00000000
