10
Lattice="16.28999089631971 0.0 0.0 0.0 16.28999089631971 0.0 0.0 0.0 34.642051614445585" Properties=species:S:1:pos:R:3:initial_magmoms:R:1 pbc="T T T"
Si      -1.32888933      -1.35208629       1.36925210       0.00000000
Si       1.31615055      -1.32686937      -1.43611130       0.00000000
Si       1.38336309       1.36526490       1.36869783       0.00000000
Si      -1.46707740       1.31460300      -1.43033647       0.00000000
Si       1.97322399       0.56000133      -2.71101022       0.00000000
Si       0.31304493       2.38413924      -2.62603284       0.00000000
Si      -2.69894349      -2.70904329      -0.03018017       0.00000000
Si       2.73184929      -2.67646329       0.00660971       0.00000000
Si      -2.69016318       0.00421911       2.72853769       0.00000000
Si      -2.68641648       2.74352922       0.00346767       0.00000000
