10
Lattice="16.28999089631971 0.0 0.0 0.0 16.28999089631971 0.0 0.0 0.0 34.642051614445585" Properties=species:S:1:pos:R:3:initial_magmoms:R:1 pbc="T T T"
Si      -1.35658233      -1.35596331       1.35679135       0.00000000
Si       1.35681039      -1.35739683      -1.35751884       0.00000000
Si      -1.35778779       1.35780408      -1.35744955       0.00000000
Si       1.35933534       1.35892809       1.35710313       0.00000000
Si      -0.00200367      -2.71176372       2.71271665       0.00000000
Si      -0.00125433      -2.71445157      -2.71417162       0.00000000
Si       2.71469592      -2.71450044      -0.00017321       0.00000000
Si      -2.71494027      -2.71448415      -0.00027714       0.00000000
Si       2.71477737       0.00060273      -2.71514160       0.00000000
Si      -0.00001629       2.71575477      -2.71427554       0.00000000
