10
Lattice="16.28999089631971 0.0 0.0 0.0 16.28999089631971 0.0 0.0 0.0 34.642051614445585" Properties=species:S:1:pos:R:3:initial_magmoms:R:1 pbc="T T T"
Si       0.72081621       1.96662654      -1.16071723       0.00000000
Si      -1.89762210      -0.53142867      -1.39801542       0.00000000
Si      -0.50899734      -0.55850265       2.31000258       0.00000000
Si       1.87447401      -1.57933179      -0.12800245       0.00000000
Si      -0.66658680      -1.94106753      -2.77431025       0.00000000
Si       2.04318954       0.79431669      -2.75989915       0.00000000
Si      -2.89417914      -0.94126878       1.88525614       0.00000000
Si       0.70955982      -3.29507604      -1.31885828       0.00000000
Si      -2.87021655      -2.32549524      -0.05355664       0.00000000
Si      -0.23221395       1.58620617       3.44182832       0.00000000
