10
Lattice="16.28999089631971 0.0 0.0 0.0 16.28999089631971 0.0 0.0 0.0 34.642051614445585" Properties=species:S:1:pos:R:3:initial_magmoms:R:1 pbc="T T T"
Si       0.54255474      -0.38066472       2.20576459       0.00000000
Si      -2.01585492      -1.00206306      -0.58119002       0.00000000
Si       0.17689311       2.32526718      -0.42765637       0.00000000
Si       1.64774979      -0.57793662      -1.62162998       0.00000000
Si       1.29396357       1.67998770      -2.41694265       0.00000000
Si       1.80660987       1.41657840       2.98753220       0.00000000
Si       3.48848721      -1.64628369      -0.32033523       0.00000000
Si      -1.17964035      -0.11528433       3.68619349       0.00000000
Si      -1.71877419      -3.14708139      -1.63004801       0.00000000
Si      -3.00074832      -2.31866973       1.10518599       0.00000000
