10
Lattice="16.28999089631971 0.0 0.0 0.0 16.28999089631971 0.0 0.0 0.0 34.642051614445585" Properties=species:S:1:pos:R:3:initial_magmoms:R:1 pbc="T T T"
Si      -1.72219509       0.26538039       1.48042890       0.00000000
Si      -0.54255474       0.38066472      -2.20576459       0.00000000
Si       1.26405513       1.79724312       0.78176762       0.00000000
Si       0.67269555      -2.18188260       0.57055491       0.00000000
Si       2.04375969      -1.41898932       2.33463309       0.00000000
Si      -2.71235016      -1.84217094       1.11838462       0.00000000
Si       2.54000196       0.91276128       2.49038384       0.00000000
Si      -0.36566163       2.70593190      -2.63342095       0.00000000
Si       2.01391641      -3.03347493      -1.16688352       0.00000000
Si      -2.55840966      -0.62139834      -2.78695461       0.00000000
