10
Lattice="16.28999089631971 0.0 0.0 0.0 16.28999089631971 0.0 0.0 0.0 34.642051614445585" Properties=species:S:1:pos:R:3:initial_magmoms:R:1 pbc="T T T"
Si       0.35245044      -0.40874868      -2.28582241       0.00000000
Si      -0.65707344      -1.88687070       1.27489892       0.00000000
Si      -1.66017906       1.82413791       0.08497739       0.00000000
Si       1.97947935       0.79949691       1.28401325       0.00000000
Si      -1.97322399      -0.56000133       2.71101022       0.00000000
Si       0.76256748       2.16639081       2.73488554       0.00000000
Si       2.65732254      -0.89748126      -2.35770471       0.00000000
Si      -3.44030139       0.75460167       1.28067375       0.00000000
Si      -0.47159550       3.56549004       1.30301789       0.00000000
Si      -0.45121671       1.53603297      -3.54474991       0.00000000
