10
Lattice="16.28999089631971 0.0 0.0 0.0 16.28999089631971 0.0 0.0 0.0 34.642051614445585" Properties=species:S:1:pos:R:3:initial_magmoms:R:1 pbc="T T T"
Si       1.23416298      -1.39909923       1.43186765       0.00000000
Si      -1.47936006       1.32418152       1.38845420       0.00000000
Si      -1.18858356      -1.74135213      -1.21804050       0.00000000
Si       1.92489156       0.71537535      -1.43379171       0.00000000
Si       2.62633896       2.58571170       0.04188919       0.00000000
Si       2.45107485      -2.76599313      -0.01900464       0.00000000
Si       2.59779888      -0.04859307       2.78167862       0.00000000
Si       0.47159550      -3.56549004      -1.30301789       0.00000000
Si      -0.12114873       2.66853006       2.77520056       0.00000000
Si      -0.11826540      -2.76022647       2.77669016       0.00000000
