10
Lattice="16.28999089631971 0.0 0.0 0.0 16.28999089631971 0.0 0.0 0.0 34.642051614445585" Properties=species:S:1:pos:R:3:initial_magmoms:R:1 pbc="T T T"
Si       1.10890917       1.54981431       1.49802708       0.00000000
Si       1.25226117      -1.43211906      -1.59065997       0.00000000
Si      -1.43658252       1.28544390      -1.62360458       0.00000000
Si      -2.11212882      -0.61722810       1.30423933       0.00000000
Si       2.55746484       2.71586880      -0.15013874       0.00000000
Si      -2.79438660      -2.59346574       0.04929567       0.00000000
Si      -2.84387562       2.64621276      -0.37804892       0.00000000
Si       2.65075767      -2.95256250      -0.02549656       0.00000000
Si       2.60895753      -0.06118524      -2.99272851       0.00000000
Si      -0.10987605       2.65031784      -2.99764769       0.00000000
