10
Lattice="16.28999089631971 0.0 0.0 0.0 16.28999089631971 0.0 0.0 0.0 34.642051614445585" Properties=species:S:1:pos:R:3:initial_magmoms:R:1 pbc="T T T"
Si       0.31385943       2.33289090      -0.26317581       0.00000000
Si       2.08456614      -1.15582437       0.12155903       0.00000000
Si      -0.88484022      -1.07136072      -1.96649180       0.00000000
Si      -1.45217205      -0.52823583       1.88688432       0.00000000
Si      -1.74114036      -3.00864897      -0.90803796       0.00000000
Si      -3.11239998      -1.79132985       0.71560126       0.00000000
Si       1.21155246      -1.40957370      -3.18786730       0.00000000
Si       1.13233419       3.07436283       1.87822380       0.00000000
Si      -1.78709445       3.30520842      -0.78058979       0.00000000
Si      -2.09165229       1.54738710       2.95015341       0.00000000
