10
Lattice="16.28999089631971 0.0 0.0 0.0 16.28999089631971 0.0 0.0 0.0 34.642051614445585" Properties=species:S:1:pos:R:3:initial_magmoms:R:1 pbc="T T T"
Si      -0.31385943      -2.33289090       0.26317581       0.00000000
Si      -2.10095388       0.97231752      -0.51741397       0.00000000
Si       0.81847476       0.74147193       2.14139962       0.00000000
Si       1.53569088       0.88488909      -1.66146837       0.00000000
Si      -3.13261587       0.89492373       1.64917043       0.00000000
Si      -1.37562534       3.14582706      -1.27323468       0.00000000
Si       1.03702140       3.19803651      -1.48929727       0.00000000
Si       2.62254339      -0.77410080       2.54231230       0.00000000
Si       1.77070671      -3.48871527       0.38473484       0.00000000
Si      -1.19869965      -3.40425162      -1.70331599       0.00000000
