10
Lattice="16.28999089631971 0.0 0.0 0.0 16.28999089631971 0.0 0.0 0.0 34.642051614445585" Properties=species:S:1:pos:R:3:initial_magmoms:R:1 pbc="T T T"
Si       1.35707772       1.35704564       1.35706849       0.00000000
Si      -1.35774919      -1.35879939       1.35679135       0.00000000
Si      -1.35585955       1.35805236      -1.36119089       0.00000000
Si       1.35569144      -1.36122660      -1.36299228       0.00000000
Si       0.00247082       2.71826899      -2.69607114       0.00000000
Si      -0.00085760       2.71429423       2.71389448       0.00000000
Si       2.71343851       2.71502728       0.00010393       0.00000000
Si      -2.71534150       2.71361005      -0.00024249       0.00000000
Si       2.71461139      -0.00063056       2.71455268       0.00000000
Si      -2.71543924      -0.00063428       2.71420626       0.00000000
