10
Lattice="16.28999089631971 0.0 0.0 0.0 16.28999089631971 0.0 0.0 0.0 34.642051614445585" Properties=species:S:1:pos:R:3:initial_magmoms:R:1 pbc="T T T"
Si       1.02249072      -1.15212654      -1.83970182       0.00000000
Si       1.17890730       2.07917415       0.35892650       0.00000000
Si      -2.07952927       0.99219132      -1.00971244       0.00000000
Si      -0.48562119      -0.54045333       2.46360552       0.00000000
Si       0.41806656      -3.39221983      -1.15811907       0.00000000
Si      -1.07069283       2.67445962      -2.30265846       0.00000000
Si      -2.27772644       1.17460674       2.73450413       0.00000000
Si       3.33666441      -0.34837794      -1.68284252       0.00000000
Si      -2.77603496       2.42965350       0.71927332       0.00000000
Si      -1.66293533      -3.36915970       0.57540480       0.00000000
