10
Lattice="16.28999089631971 0.0 0.0 0.0 16.28999089631971 0.0 0.0 0.0 34.642051614445585" Properties=species:S:1:pos:R:3:initial_magmoms:R:1 pbc="T T T"
Si      -1.27635408      -1.49376989       1.26568271       0.00000000
Si       1.56522465       1.40040992       1.08304971       0.00000000
Si       1.27814598      -1.43442542      -1.39108700       0.00000000
Si      -1.44058986       1.27295208      -1.39139878       0.00000000
Si      -0.08371431       2.63518215      -2.75702386       0.00000000
Si       2.62970544      -0.07575797      -2.76284373       0.00000000
Si      -2.76539040       2.62948065       0.04978066       0.00000000
Si      -1.13878503      -1.01080397       3.54249818       0.00000000
Si       2.56671756      -2.88605990       0.05930723       0.00000000
Si      -0.08114049      -2.79563411      -2.75868668       0.00000000
