10
Lattice="16.28999089631971 0.0 0.0 0.0 16.28999089631971 0.0 0.0 0.0 34.642051614445585" Properties=species:S:1:pos:R:3:initial_magmoms:R:1 pbc="T T T"
Si       1.35640289      -1.35679410       1.35682599       0.00000000
Si      -1.35778779       1.35803214       1.35696456       0.00000000
Si      -1.35808101      -1.35747828      -1.35731098       0.00000000
Si       1.35949546       1.35703845      -1.35748419       0.00000000
Si       2.71529606      -0.00089595      -2.70942566       0.00000000
Si       2.71433821      -2.71404269       0.00000000       0.00000000
Si      -2.71494027       0.00335574       2.71406769       0.00000000
Si       2.71440011       2.71541268       0.00010393       0.00000000
Si      -2.71581993      -2.71443528      -0.00065820       0.00000000
Si       0.00004887      -2.71652855       2.71462197       0.00000000
