10
Lattice="16.28999089631971 0.0 0.0 0.0 16.28999089631971 0.0 0.0 0.0 34.642051614445585" Properties=species:S:1:pos:R:3:initial_magmoms:R:1 pbc="T T T"
Si       1.35658598       1.35540945      -1.35741491       0.00000000
Si      -1.35728280       1.35624024       1.35731098       0.00000000
Si       1.35141902      -1.36290285       1.35873131       0.00000000
Si      -1.35759231      -1.35990549      -1.35758812       0.00000000
Si       2.71433007       2.71269225      -0.00013857       0.00000000
Si      -0.00061902       2.71295289      -2.71448340       0.00000000
Si      -2.71459818       2.71285515      -0.00093534       0.00000000
Si       2.71459559      -0.00252495      -2.71444876       0.00000000
Si      -2.71474479      -2.71458189      -0.00048499       0.00000000
Si      -2.71583622      -0.00171045      -2.71462197       0.00000000
