10
Lattice="16.28999089631971 0.0 0.0 0.0 16.28999089631971 0.0 0.0 0.0 34.642051614445585" Properties=species:S:1:pos:R:3:initial_magmoms:R:1 pbc="T T T"
Si      -1.18063404       0.24019605       1.96313152       0.00000000
Si      -1.27594683       0.88448184      -1.70861622       0.00000000
Si      -0.49624227      -2.33175060      -0.15575075       0.00000000
Si       2.09157084       1.21469643      -0.05106241       0.00000000
Si       1.64144556      -3.02383125      -0.72488534       0.00000000
Si       0.38459061       1.46126187      -3.22888351       0.00000000
Si      -0.52432623      -1.67759307       3.19389502       0.00000000
Si      -2.54000196      -0.91276128      -2.49038384       0.00000000
Si       1.63848078       2.79757944      -1.75538302       0.00000000
Si      -3.46744053      -0.44491248       1.24562495       0.00000000
