10
Lattice="16.28999089631971 0.0 0.0 0.0 16.28999089631971 0.0 0.0 0.0 34.642051614445585" Properties=species:S:1:pos:R:3:initial_magmoms:R:1 pbc="T T T"
Si       1.35580061      -1.35793440      -1.35194146       0.00000000
Si       1.35490466       1.35837423       1.35758812       0.00000000
Si      -1.35949546      -1.35703845       1.35748419       0.00000000
Si      -1.36231363       1.36179513      -1.36261122       0.00000000
Si       2.71107322      -0.00228060      -2.68445219       0.00000000
Si       0.00023585      -2.70985779      -2.69565543       0.00000000
Si       2.71120354      -2.71309950       0.00051963       0.00000000
Si       2.71149676       2.71450044       0.00031178       0.00000000
Si       2.71294657       0.00076563       2.71444876       0.00000000
Si      -0.00309257      -2.71383255       2.71431019       0.00000000
