10
Lattice="16.28999089631971 0.0 0.0 0.0 16.28999089631971 0.0 0.0 0.0 34.642051614445585" Properties=species:S:1:pos:R:3:initial_magmoms:R:1 pbc="T T T"
Si      -1.34244261      -1.35490446      -1.38356967       0.00000000
Si       1.37235105       1.35689184      -1.38294612       0.00000000
Si       1.24919865      -1.50275250       1.44117944       0.00000000
Si      -1.39393530       1.42214958       1.45902010       0.00000000
Si       0.17713746       2.65875606       2.64142327       0.00000000
Si       2.67243966      -0.22543731       2.70880210       0.00000000
Si      -2.70151731       2.72222190      -0.02480372       0.00000000
Si      -2.69913897      -2.72583828       0.01849887       0.00000000
Si      -2.70285309       0.00174303      -2.74566126       0.00000000
Si       2.73163752       2.71810053      -0.01534644       0.00000000
