10
Lattice="16.28999089631971 0.0 0.0 0.0 16.28999089631971 0.0 0.0 0.0 34.642051614445585" Properties=species:S:1:pos:R:3:initial_magmoms:R:1 pbc="T T T"
Si      -1.25389017      -1.33631757      -1.47350049       0.00000000
Si       0.45309006      -1.58288301       1.70432061       0.00000000
Si      -1.54979802       1.36995642       1.17048629       0.00000000
Si       1.47935421       0.80917317      -1.68523283       0.00000000
Si      -2.91442761      -1.91309760       0.04676680       0.00000000
Si      -1.63848078      -2.79757944       1.75538302       0.00000000
Si       2.32707115      -2.73302217       0.92923891       0.00000000
Si      -3.67689735       0.27526842       0.69841879       0.00000000
Si      -2.65013865       0.18309960      -2.67163116       0.00000000
Si      -2.20247316       3.15175662      -0.16018494       0.00000000
