10
Lattice="16.28999089631971 0.0 0.0 0.0 16.28999089631971 0.0 0.0 0.0 34.642051614445585" Properties=species:S:1:pos:R:3:initial_magmoms:R:1 pbc="T T T"
Si      -1.35640289       1.35679410      -1.35682599       0.00000000
Si       1.35793532      -1.35724859      -1.35682599       0.00000000
Si      -1.35635402      -1.35973445       1.35779597       0.00000000
Si       1.35907399       1.35746199       1.35907773       0.00000000
Si      -0.00156914      -2.71212929       2.71576515       0.00000000
Si       2.71429611       0.00073305      -2.71379056       0.00000000
Si       0.00309257       2.71383255      -2.71431019       0.00000000
Si       0.00085760      -2.71429423      -2.71389448       0.00000000
Si      -0.00517935       2.71182888       2.71645800       0.00000000
Si      -2.71448390      -0.00068418      -2.71413698       0.00000000
