10
Lattice="16.28999089631971 0.0 0.0 0.0 16.28999089631971 0.0 0.0 0.0 34.642051614445585" Properties=species:S:1:pos:R:3:initial_magmoms:R:1 pbc="T T T"
Si       2.11817960      -1.03356792      -0.02663975       0.00000000
Si       0.33538734       2.28260367      -0.74937728       0.00000000
Si      -0.43209225       0.47798118       2.52512984       0.00000000
Si      -1.07761608      -1.19254203      -2.13190769       0.00000000
Si      -1.76236623       3.25241253      -1.27985131       0.00000000
Si       2.09659535      -3.25663164       0.71605161       0.00000000
Si       3.32779355      -0.80394408      -2.01246183       0.00000000
Si       1.73241774       2.47964751      -2.62282048       0.00000000
Si       1.97038043       3.47358186       0.70638647       0.00000000
Si      -2.25194589       2.30764140       2.54619222       0.00000000
