10
Lattice="16.28999089631971 0.0 0.0 0.0 16.28999089631971 0.0 0.0 0.0 34.642051614445585" Properties=species:S:1:pos:R:3:initial_magmoms:R:1 pbc="T T T"
Si      -1.32848208      -1.35133695       1.37726828       0.00000000
Si       1.28956527      -1.30953681      -1.51029730       0.00000000
Si       1.38611610       1.36458628       1.37650615       0.00000000
Si      -1.43738073       1.37938737      -1.39076137       0.00000000
Si       0.60145938       2.19086558      -2.49010047       0.00000000
Si       2.41021953       0.48977907      -2.68955292       0.00000000
Si      -2.69744481      -2.70290196      -0.01531526       0.00000000
Si      -2.68793145       0.00484781       2.73728134       0.00000000
Si       2.73761932      -2.69622306      -0.00819631       0.00000000
Si       0.02542869      -2.71018359       2.73714278       0.00000000
