10
Lattice="16.28999089631971 0.0 0.0 0.0 16.28999089631971 0.0 0.0 0.0 34.642051614445585" Properties=species:S:1:pos:R:3:initial_magmoms:R:1 pbc="T T T"
Si      -1.35659210      -1.35612621       1.35727634       0.00000000
Si       1.35553977      -1.35599589      -1.35966664       0.00000000
Si       1.35824391       1.35905841       1.35672207       0.00000000
Si      -1.35619789       1.35962856      -1.35935487       0.00000000
Si      -0.00042354      -2.71678104      -2.68476396       0.00000000
Si      -2.71149676      -2.71450044      -0.00031178       0.00000000
Si       0.00144981      -2.71373481       2.71413698       0.00000000
Si      -2.71460172       0.00180819       2.71431019       0.00000000
Si       2.71533123      -2.71440270      -0.00041570       0.00000000
Si       2.71544526       0.00167787       2.71458732       0.00000000
