10
Lattice="16.28999089631971 0.0 0.0 0.0 16.28999089631971 0.0 0.0 0.0 34.642051614445585" Properties=species:S:1:pos:R:3:initial_magmoms:R:1 pbc="T T T"
Si       1.98990495       1.18745955      -0.43919218       0.00000000
Si       1.12800105      -0.96713730       1.83253091       0.00000000
Si      -0.57269124      -1.64695158      -1.59377776       0.00000000
Si      -1.93401396       1.37849238       0.13579692       0.00000000
Si       2.15368461      -2.67931404       0.39644386       0.00000000
Si       1.02960945       3.14126816      -1.30309614       0.00000000
Si      -2.88354177       0.73607994       2.19218489       0.00000000
Si      -1.09933065       3.54457435      -0.28849917       0.00000000
Si       0.36005787      -3.64703778      -0.81769144       0.00000000
Si      -2.97044892      -1.44353835      -1.81694198       0.00000000
