10
Lattice="16.28999089631971 0.0 0.0 0.0 16.28999089631971 0.0 0.0 0.0 34.642051614445585" Properties=species:S:1:pos:R:3:initial_magmoms:R:1 pbc="T T T"
Si      -1.87398109       1.15013916       0.77508170       0.00000000
Si       1.37469192       1.28912544      -1.37546343       0.00000000
Si      -1.10621155      -1.62639360      -1.26121388       0.00000000
Si       1.38884793      -0.55247535       1.83329304       0.00000000
Si      -1.02793321       2.13954489       2.73658504       0.00000000
Si      -2.32707115       2.73302217      -0.92923891       0.00000000
Si       3.09550236      -0.16107552      -2.03667664       0.00000000
Si       0.26394198       0.38084391       3.68598564       0.00000000
Si       1.68934956       3.37009149      -0.18724039       0.00000000
Si       1.24868877      -2.91584484       2.04904386       0.00000000
