10
Lattice="16.28999089631971 0.0 0.0 0.0 16.28999089631971 0.0 0.0 0.0 34.642051614445585" Properties=species:S:1:pos:R:3:initial_magmoms:R:1 pbc="T T T"
Si       1.85736951       1.24672257      -0.88995480       0.00000000
Si       0.82604961       0.09303219       2.26088231       0.00000000
Si      -1.17890730      -2.07917415      -0.35892650       0.00000000
Si      -1.94709483       1.70267967       0.33450384       0.00000000
Si      -0.82347579       1.81723095       2.49275444       0.00000000
Si      -2.24960013       0.59528547      -2.66158496       0.00000000
Si       2.38037625      -0.14318910      -2.73578827       0.00000000
Si      -3.25843657      -1.08698283      -1.36863894       0.00000000
Si      -1.66452849      -2.61962748       2.10467902       0.00000000
Si       2.15775711      -2.42755209      -2.04176902       0.00000000
