10
Lattice="16.28999089631971 0.0 0.0 0.0 16.28999089631971 0.0 0.0 0.0 34.642051614445585" Properties=species:S:1:pos:R:3:initial_magmoms:R:1 pbc="T T T"
Si       0.02158425       2.22306372      -0.74269136       0.00000000
Si      -2.00784743      -1.35220032       0.02584298       0.00000000
Si       1.12361904       0.11455128       2.15825060       0.00000000
Si       1.94709483      -1.70267967      -0.33450384       0.00000000
Si      -0.30250530      -1.10739420      -2.99608879       0.00000000
Si      -0.61628980      -0.87698844       3.34048090       0.00000000
Si      -1.31134174      -2.78966250      -1.70314278       0.00000000
Si      -1.50953891      -2.60724708       2.04107379       0.00000000
Si       2.77314444      -1.60964748       1.92637847       0.00000000
Si       1.23119820       2.45268756      -2.72851344       0.00000000
