10
Lattice="16.28999089631971 0.0 0.0 0.0 16.28999089631971 0.0 0.0 0.0 34.642051614445585" Properties=species:S:1:pos:R:3:initial_magmoms:R:1 pbc="T T T"
Si      -0.67391078      -1.95370857      -1.14803823       0.00000000
Si       1.74927233       0.64158165      -1.50651438       0.00000000
Si      -1.91813514       0.31744323       1.77104124       0.00000000
Si       1.87522661       0.52158951       1.83090274       0.00000000
Si      -2.31623016       1.87558173      -0.12516180       0.00000000
Si       0.00043657       0.03927519       3.19004975       0.00000000
Si       0.45578117       2.10198015      -2.85377916       0.00000000
Si      -2.25431187      -0.63052074      -2.82901008       0.00000000
Si      -0.96846072       3.36748509      -1.39891611       0.00000000
Si       2.15044616       2.93325885       1.43050968       0.00000000
