10
Lattice="10.86 0.0 0.0 0.0 10.86 0.0 0.0 0.0 10.86" Properties=species:S:1:pos:R:3:initial_magmoms:R:1 pbc="T T T"
Si      -1.18490202      -1.41923910       1.29265494       0.00000000
Si      -1.18490202       1.29576090      -1.42234506       0.00000000
Si       1.38876594       1.42048800       1.51876014       0.00000000
Si       1.53009798      -1.41923910      -1.42234506       0.00000000
Si       0.30644748       2.61554412      -2.53434390       0.00000000
Si      -2.54240202      -0.06173910       2.65015494       0.00000000
Si      -2.54240202       2.65326090      -0.06484506       0.00000000
Si      -2.54240202      -2.77673910      -0.06484506       0.00000000
Si      -2.54240202      -0.06173910      -2.77984506       0.00000000
Si       2.83275498      -0.13358886       2.55464124       0.00000000
