10
Lattice="10.86 0.0 0.0 0.0 10.86 0.0 0.0 0.0 10.86" Properties=species:S:1:pos:R:3:initial_magmoms:R:1 pbc="T T T"
Si       1.10794806      -1.11468126      -1.32089094       0.00000000
Si      -1.46571990      -1.23940836       1.16800386       0.00000000
Si       1.24928010       1.47559164       1.16800386       0.00000000
Si      -1.46571990       1.47559164      -1.54699614       0.00000000
Si      -0.10821990      -2.59690836       2.52550386       0.00000000
Si       2.60678010       0.11809164       2.52550386       0.00000000
Si       2.55193710      -2.66875812      -0.28500984       0.00000000
Si      -2.82321990       0.11809164       2.52550386       0.00000000
Si      -0.10821990       2.83309164       2.52550386       0.00000000
Si      -0.28081788      -2.53516926      -2.83965108       0.00000000
