10
Lattice="10.86 0.0 0.0 0.0 10.86 0.0 0.0 0.0 10.86" Properties=species:S:1:pos:R:3:initial_magmoms:R:1 pbc="T T T"
Si      -1.10509188      -1.31370162       1.37033652       0.00000000
Si      -1.10509188       1.40129838      -1.34466348       0.00000000
Si       1.60990812      -1.31370162      -1.34466348       0.00000000
Si      -2.32874238       2.72108160       0.25833768       0.00000000
Si      -2.46259188      -2.67120162       0.01283652       0.00000000
Si      -2.46259188       0.04379838      -2.70216348       0.00000000
Si       0.25240812      -2.67120162      -2.70216348       0.00000000
Si       0.25240812      -2.67120162       2.72783652       0.00000000
Si      -2.63518986       0.10553748       2.79268158       0.00000000
Si       0.25240812       2.75879838      -2.70216348       0.00000000
