10
Lattice="16.28999089631971 0.0 0.0 0.0 16.28999089631971 0.0 0.0 0.0 34.40785480372833" Properties=species:S:1:pos:R:3:initial_magmoms:R:1 pbc="T T T"
Si      -1.33858514      -1.37493983       1.37962156       0.00000000
Si       1.36980981       1.35091704       1.37666248       0.00000000
Si       1.33731126      -1.33809185      -1.45083553       0.00000000
Si      -1.50053706       1.35067106      -1.41840611       0.00000000
Si      -2.70935999       2.70087423       0.04321285       0.00000000
Si      -2.69277677      -2.72445230      -0.00960324       0.00000000
Si       2.72015307       2.70771603      -0.01885896       0.00000000
Si      -2.70182193      -0.01175745       2.74059061       0.00000000
Si       0.01203831       2.70276387       2.74100350       0.00000000
Si       2.72386719      -2.72314910       0.02146363       0.00000000
