10
Lattice="16.28999089631971 0.0 0.0 0.0 16.28999089631971 0.0 0.0 0.0 34.40785480372833" Properties=species:S:1:pos:R:3:initial_magmoms:R:1 pbc="T T T"
Si      -0.08477316       1.45608165       1.82444311       0.00000000
Si      -1.93155417       0.63638514      -1.15331753       0.00000000
Si      -0.00928530      -2.29267089       0.47462221       0.00000000
Si       1.95160716       0.45740691      -1.42472684       0.00000000
Si      -1.46642580       2.95647277      -0.97652987       0.00000000
Si      -1.03979070       0.07986987      -3.33126714       0.00000000
Si       0.08760762       3.49991369       0.72046647       0.00000000
Si       1.53259578       0.57335913       3.27304902       0.00000000
Si       2.23603056      -2.68499925       1.08752967       0.00000000
Si      -0.24496902      -3.25037628      -1.67091518       0.00000000
