10
Lattice="16.28999089631971 0.0 0.0 0.0 16.28999089631971 0.0 0.0 0.0 34.40785480372833" Properties=species:S:1:pos:R:3:initial_magmoms:R:1 pbc="T T T"
Si      -0.40197204       0.99453708      -2.06061876       0.00000000
Si       0.85473630       1.82053782       1.25826155       0.00000000
Si       1.34803008      -1.89396337      -0.54044448       0.00000000
Si      -2.23780617      -0.29351322       0.81185379       0.00000000
Si      -2.34997911      -0.19868913      -2.63512703       0.00000000
Si      -0.37380663      -3.33602000      -1.33333953       0.00000000
Si      -0.87122178       3.21097077      -1.58221168       0.00000000
Si       2.74199796       0.88461216       2.33020445       0.00000000
Si       1.73271843       0.95995341      -3.15299994       0.00000000
Si      -0.87094485       2.24570682       2.88609807       0.00000000
