10
Lattice="16.28999089631971 0.0 0.0 0.0 16.28999089631971 0.0 0.0 0.0 34.40785480372833" Properties=species:S:1:pos:R:3:initial_magmoms:R:1 pbc="T T T"
Si      -0.16615800      -1.36192938       1.85730646       0.00000000
Si      -0.96562233      -1.75839540      -1.17200101       0.00000000
Si       2.00733525       0.18348730      -1.31321092       0.00000000
Si      -0.56477430       2.37471059       0.40088614       0.00000000
Si       1.75412349       2.05607819       1.40618100       0.00000000
Si       0.60696540       0.60466036       2.99715778       0.00000000
Si       1.47512466      -3.06467421       1.63083001       0.00000000
Si      -2.58299127      -0.87567288      -2.62060691       0.00000000
Si      -2.88960165      -2.48339814      -0.01063203       0.00000000
Si       3.66319746       1.16902253       0.10174408       0.00000000
