10
Lattice="16.28999089631971 0.0 0.0 0.0 16.28999089631971 0.0 0.0 0.0 34.40785480372833" Properties=species:S:1:pos:R:3:initial_magmoms:R:1 pbc="T T T"
Si      -0.39796470      -2.13059258       0.95199706       0.00000000
Si      -1.94039964       1.26324063      -0.52489212       0.00000000
Si       0.90696204      -0.85976502      -2.07482921       0.00000000
Si      -1.04050746       1.73889234       1.72500436       0.00000000
Si       1.48343256      -2.47519124       2.34630734       0.00000000
Si      -1.99803366      -1.65502653       2.68071747       0.00000000
Si       1.80001242       0.84553245      -3.37462106       0.00000000
Si      -0.91694781       0.12395061       3.86183656       0.00000000
Si      -0.88422120      -1.82972652      -3.43820681       0.00000000
Si      -4.04360873       0.07605801      -0.17881772       0.00000000
