10
Lattice="16.28999089631971 0.0 0.0 0.0 16.28999089631971 0.0 0.0 0.0 34.40785480372833" Properties=species:S:1:pos:R:3:initial_magmoms:R:1 pbc="T T T"
Si       1.35037584       1.35239580      -1.36609582       0.00000000
Si      -1.36249560      -1.35951453      -1.35849168       0.00000000
Si      -1.48403529       1.21285566       1.37810417       0.00000000
Si       1.34951247      -1.33507953       1.42500210       0.00000000
Si      -0.44883837      -2.26145925       2.66495866       0.00000000
Si      -2.43639756      -0.77131521       2.54160643       0.00000000
Si       2.67362883       2.71337643      -0.00650309       0.00000000
Si       2.70848943      -2.71622718       0.02343176       0.00000000
Si       2.70601335      -0.00482184      -2.71884139       0.00000000
Si      -0.00605988       2.70692559      -2.71866935       0.00000000
