10
Lattice="16.28999089631971 0.0 0.0 0.0 16.28999089631971 0.0 0.0 0.0 34.40785480372833" Properties=species:S:1:pos:R:3:initial_magmoms:R:1 pbc="T T T"
Si       0.33019830       1.46197863       1.82468397       0.00000000
Si       2.19866130      -0.47236113      -1.10813999       0.00000000
Si       0.16324209      -2.43006075       0.74926586       0.00000000
Si      -0.62731161       2.09679993      -1.33829426       0.00000000
Si      -2.65846284      -0.13048290       0.39434864       0.00000000
Si      -1.82809638      -1.64659320       1.94927488       0.00000000
Si      -0.86310936      -2.79065619      -1.47981385       0.00000000
Si      -1.89830628       0.68365872      -2.76666834       0.00000000
Si       0.93524148      -1.86427647      -2.71977040       0.00000000
Si       2.08917621       2.70231552       0.59824971       0.00000000
