10
Lattice="16.28999089631971 0.0 0.0 0.0 16.28999089631971 0.0 0.0 0.0 34.40785480372833" Properties=species:S:1:pos:R:3:initial_magmoms:R:1 pbc="T T T"
Si      -0.82857456      -1.76899626      -1.27567193       0.00000000
Si       1.79835084       0.92637972      -1.23995656       0.00000000
Si       1.02635145       0.36059544       2.22907971       0.00000000
Si      -1.98755919       1.49014404      -0.12335223       0.00000000
Si       0.86310936       2.79065619       1.47981385       0.00000000
Si       0.44883837       2.26145925      -2.66495866       0.00000000
Si      -2.28191949      -0.47747619      -2.66341031       0.00000000
Si      -1.79535348       2.66017329       1.87416249       0.00000000
Si      -0.96498702       1.14406299       3.42908873       0.00000000
Si      -1.03519692       3.47431491      -1.28685449       0.00000000
