10
Lattice="16.28999089631971 0.0 0.0 0.0 16.28999089631971 0.0 0.0 0.0 34.40785480372833" Properties=species:S:1:pos:R:3:initial_magmoms:R:1 pbc="T T T"
Si      -0.29869344      -2.16020061       0.80411202       0.00000000
Si       1.93880322       0.86986971       0.99597032       0.00000000
Si      -1.87747137       1.22914566       0.79843472       0.00000000
Si       0.96471009      -0.79100982      -2.09141381       0.00000000
Si       1.20140379       3.07944531       1.05504864       0.00000000
Si      -1.16110233      -1.57540590       2.88661418       0.00000000
Si       1.50319233      -3.33625716      -0.02883380       0.00000000
Si      -1.73939733      -2.81070918      -1.69654904       0.00000000
Si      -0.88787016       2.93457834       2.10404150       0.00000000
Si       0.13434363       0.72510048      -3.64634004       0.00000000
