10
Lattice="16.28999089631971 0.0 0.0 0.0 16.28999089631971 0.0 0.0 0.0 34.40785480372833" Properties=species:S:1:pos:R:3:initial_magmoms:R:1 pbc="T T T"
Si       2.06778744       0.49273992      -0.90269058       0.00000000
Si      -1.08712944       2.05069923       0.10745579       0.00000000
Si       0.38602413      -0.84517407       2.14949430       0.00000000
Si      -1.53383382      -1.32564762      -1.20737230       0.00000000
Si      -3.25930972       1.19879739       0.32512000       0.00000000
Si       0.85527387      -3.06160776       1.67108722       0.00000000
Si       2.59012629       2.53570140       0.28080266       0.00000000
Si       1.56607173       1.11962799      -3.09801616       0.00000000
Si      -0.45675531       3.00035736       2.16597567       0.00000000
Si      -3.36409514       0.03787425      -1.79719208       0.00000000
