10
Lattice="16.28999089631971 0.0 0.0 0.0 16.28999089631971 0.0 0.0 0.0 34.40785480372833" Properties=species:S:1:pos:R:3:initial_magmoms:R:1 pbc="T T T"
Si      -0.04183272       2.10206160       0.99394026       0.00000000
Si      -2.04538869      -0.34360497      -1.17265475       0.00000000
Si      -0.31943061      -1.73403792       1.66781847       0.00000000
Si       2.15243028       0.60494544      -0.97821586       0.00000000
Si      -1.57613895      -2.56003866      -1.65106184       0.00000000
Si       3.38366106       0.88019757       1.00591420       0.00000000
Si      -0.57884886       3.53926314      -0.88152973       0.00000000
Si       1.95136281       2.17078911       2.32191216       0.00000000
Si      -1.17416691      -3.55457574       0.40955692       0.00000000
Si       0.55855152      -2.59462233      -2.74344302       0.00000000
