10
Lattice="16.28999089631971 0.0 0.0 0.0 16.28999089631971 0.0 0.0 0.0 34.40785480372833" Properties=species:S:1:pos:R:3:initial_magmoms:R:1 pbc="T T T"
Si      -1.45352412       1.25688753       1.31294254       0.00000000
Si       1.29723786      -1.44041067       1.30110623       0.00000000
Si       0.55429983       1.84806792      -1.34873739       0.00000000
Si      -1.12076829      -1.77951960      -1.07965784       0.00000000
Si      -1.97219772      -0.54610596      -2.85295438       0.00000000
Si       2.56991040       2.62042569      -0.12935984       0.00000000
Si      -0.18205704       0.98456760      -3.57555414       0.00000000
Si      -0.08615781       2.62058859       2.66749452       0.00000000
Si       2.62886391      -0.10091655       2.66887083       0.00000000
Si       0.70578054      -3.38131530      -1.51631169       0.00000000
