10
Lattice="16.28999089631971 0.0 0.0 0.0 16.28999089631971 0.0 0.0 0.0 34.40785480372833" Properties=species:S:1:pos:R:3:initial_magmoms:R:1 pbc="T T T"
Si      -1.18912113       1.50039045      -1.36661194       0.00000000
Si       1.87971939       0.76123170       1.21404743       0.00000000
Si      -1.37681451      -1.32561504       1.42059790       0.00000000
Si       1.50985494      -1.23823548      -1.39238344       0.00000000
Si       1.33967331      -0.72009945       3.35714186       0.00000000
Si      -2.53112391       0.11746719      -2.74303013       0.00000000
Si       0.18660195      -2.59921611      -2.75197617       0.00000000
Si       2.78298360      -2.59481781       0.02319091       0.00000000
Si      -2.64780918      -2.73875625      -0.00777618       0.00000000
Si      -2.65730625       0.19497501       2.80840509       0.00000000
