10
Lattice="16.28999089631971 0.0 0.0 0.0 16.28999089631971 0.0 0.0 0.0 34.40785480372833" Properties=species:S:1:pos:R:3:initial_magmoms:R:1 pbc="T T T"
Si      -1.35666378       1.35560493      -1.36021208       0.00000000
Si       1.35904212      -1.35940050      -1.36041852       0.00000000
Si      -1.37420811      -1.33175637       1.37758805       0.00000000
Si       1.35099486       1.34786718       1.38852976       0.00000000
Si      -2.71552671       2.71126852      -0.00013763       0.00000000
Si       0.00127062       2.71276013      -2.71736185       0.00000000
Si       2.71614573       2.71469776      -0.00037849       0.00000000
Si      -2.71621089      -2.71467963       0.00116987       0.00000000
Si      -2.71414206      -0.00236205      -2.71787797       0.00000000
Si       2.71596654      -0.00185706      -2.71777475       0.00000000
