10
Lattice="16.28999089631971 0.0 0.0 0.0 16.28999089631971 0.0 0.0 0.0 34.40785480372833" Properties=species:S:1:pos:R:3:initial_magmoms:R:1 pbc="T T T"
Si      -1.35777150       1.35184683       1.36434102       0.00000000
Si       1.36192545      -1.36459300       1.36379050       0.00000000
Si      -1.36980981      -1.35091704      -1.37666248       0.00000000
Si       1.35034326       1.35679899      -1.39552144       0.00000000
Si      -2.70707872       2.70728886       0.00440421       0.00000000
Si       2.71407690       2.71440759       0.00000000       0.00000000
Si       0.00223173       2.70983010       2.72087145       0.00000000
Si      -2.71249351      -0.00563308       2.72166284       0.00000000
Si      -2.70839495      -2.72585687       0.00295908       0.00000000
Si       2.71560816      -2.72000876       0.00509237       0.00000000
