10
Lattice="16.28999089631971 0.0 0.0 0.0 16.28999089631971 0.0 0.0 0.0 34.40785480372833" Properties=species:S:1:pos:R:3:initial_magmoms:R:1 pbc="T T T"
Si       1.11250926       1.63284444      -1.16959245       0.00000000
Si      -0.68691509      -1.44769230      -1.67659248       0.00000000
Si       1.55360988      -1.29634191       1.13435879       0.00000000
Si      -1.78163078       1.01165787       1.25337563       0.00000000
Si      -1.99481329      -0.85827123       2.69076457       0.00000000
Si       0.11174940      -1.93460692       2.88434326       0.00000000
Si      -0.71775206       2.99636631      -1.75941223       0.00000000
Si      -2.79136385      -0.56728296      -2.18101191       0.00000000
Si      -0.88409088       2.89931049       2.35545983       0.00000000
Si       0.65777391      -1.21740057      -3.61592348       0.00000000
