10
Lattice="16.28999089631971 0.0 0.0 0.0 16.28999089631971 0.0 0.0 0.0 34.40785480372833" Properties=species:S:1:pos:R:3:initial_magmoms:R:1 pbc="T T T"
Si      -1.88139726       0.34459866      -1.39431028       0.00000000
Si      -0.33063813      -2.11577778       1.06956876       0.00000000
Si      -0.19183104       1.63642239       1.73756323       0.00000000
Si       1.75645296      -0.78840342      -1.72638067       0.00000000
Si       1.01836935      -1.55424519       2.96623400       0.00000000
Si      -3.48146622       0.82016470       0.33441013       0.00000000
Si      -1.48343256       2.47519124      -2.34630734       0.00000000
Si       1.09897227      -3.56526198      -0.14028090       0.00000000
Si      -2.40038037       2.59914185       1.51552922       0.00000000
Si       0.66951900       0.65264665       3.76969227       0.00000000
