10
Lattice="16.28999089631971 0.0 0.0 0.0 16.28999089631971 0.0 0.0 0.0 34.40785480372833" Properties=species:S:1:pos:R:3:initial_magmoms:R:1 pbc="T T T"
Si       0.65658474      -2.17295568      -0.75047014       0.00000000
Si      -2.25261867      -0.28601982       0.87100092       0.00000000
Si       0.11135844       1.65824055      -1.77675380       0.00000000
Si       2.02344606       0.36626436       1.32377414       0.00000000
Si       1.30916214       2.59208109       1.99421156       0.00000000
Si      -1.65190700      -1.92085164       2.52877229       0.00000000
Si       3.74912721      -0.05890464      -0.30406238       0.00000000
Si      -0.89744868      -2.71639660      -2.44746649       0.00000000
Si       2.89439091      -1.87944246      -1.56232393       0.00000000
Si      -0.97999011       3.40552224       1.45424880       0.00000000
