10
Lattice="16.28999089631971 0.0 0.0 0.0 16.28999089631971 0.0 0.0 0.0 34.40785480372833" Properties=species:S:1:pos:R:3:initial_magmoms:R:1 pbc="T T T"
Si       1.35001746       1.35995599      -1.37624615       0.00000000
Si      -1.36374993      -1.34995601      -1.37717516       0.00000000
Si      -1.18410381       1.51749658       1.37469779       0.00000000
Si       1.41175656      -1.34189431       1.46591307       0.00000000
Si       0.65254482       2.19711538       2.71763711       0.00000000
Si       2.58256773       0.54768772       2.50293198       0.00000000
Si      -0.26959950      -2.41605691       2.86424907       0.00000000
Si       2.70185940      -2.70362428      -0.01249006       0.00000000
Si      -2.72026710       2.72535121       0.00495473       0.00000000
Si      -2.72890080      -2.71678660       0.01173309       0.00000000
