10
Lattice="16.28999089631971 0.0 0.0 0.0 16.28999089631971 0.0 0.0 0.0 34.40785480372833" Properties=species:S:1:pos:R:3:initial_magmoms:R:1 pbc="T T T"
Si       1.15215912      -1.42509776      -1.59735114       0.00000000
Si      -1.96131600      -0.75064289       1.32370532       0.00000000
Si      -1.52684541       1.30057992      -1.60832726       0.00000000
Si       1.78930989       0.34602827       2.00766504       0.00000000
Si       2.44064925      -2.81930999      -0.11898243       0.00000000
Si       2.69695611       2.80918541      -0.23438644       0.00000000
Si      -2.90118384      -2.61327407      -0.07724568       0.00000000
Si       2.51730999      -0.05826718      -2.98625939       0.00000000
Si      -2.82510954       2.70281171      -0.23827453       0.00000000
Si       3.61146042      -1.12436807       1.25516484       0.00000000
