10
Lattice="16.28999089631971 0.0 0.0 0.0 16.28999089631971 0.0 0.0 0.0 34.40785480372833" Properties=species:S:1:pos:R:3:initial_magmoms:R:1 pbc="T T T"
Si       0.24801525      -2.30712812      -0.18563048       0.00000000
Si       2.06366607       1.18690325       0.00340638       0.00000000
Si      -0.93136446       1.06095711      -1.92577430       0.00000000
Si      -1.46987928       0.23515511       1.93571818       0.00000000
Si       0.92284479       3.05334792       0.76653862       0.00000000
Si      -1.08519093       3.08907189      -0.67683729       0.00000000
Si       1.11283506      -2.27177882      -2.37882278       0.00000000
Si      -3.19171599      -1.20690152       1.14282313       0.00000000
Si      -1.95918201      -3.08888522       0.24061426       0.00000000
Si       2.06233029      -2.81171087       1.29497475       0.00000000
