10
Lattice="16.28999089631971 0.0 0.0 0.0 16.28999089631971 0.0 0.0 0.0 34.40785480372833" Properties=species:S:1:pos:R:3:initial_magmoms:R:1 pbc="T T T"
Si       1.52554221       0.97314831      -1.55202019       0.00000000
Si       1.39356063      -1.29213909       1.51018568       0.00000000
Si      -1.30476384       1.43029458       1.49080028       0.00000000
Si      -1.44306594      -1.19982366      -1.66966071       0.00000000
Si      -0.02834460       1.69821621      -3.35172404       0.00000000
Si       2.60286507      -1.14649020      -2.52270072       0.00000000
Si      -2.72821662      -2.66434353      -0.03435970       0.00000000
Si       2.66025474      -2.78363520       0.21993513       0.00000000
Si       2.77659792       2.69729820      -0.20679132       0.00000000
Si      -2.27714652       0.62136576      -3.09910143       0.00000000
