10
Lattice="16.28999089631971 0.0 0.0 0.0 16.28999089631971 0.0 0.0 0.0 34.40785480372833" Properties=species:S:1:pos:R:3:initial_magmoms:R:1 pbc="T T T"
Si       2.36607363      -0.08001648      -0.02367262       0.00000000
Si      -0.97155189      -1.40074452       1.67566347       0.00000000
Si      -0.66298671       2.23142049       0.54660349       0.00000000
Si      -1.61002215      -0.25676298      -2.46367260       0.00000000
Si       3.00651498       2.01233628      -0.91920635       0.00000000
Si       2.95741692      -0.43518735       2.24452885       0.00000000
Si      -3.06287838      -2.01854277       0.79891643       0.00000000
Si      -3.60136062       0.52670457      -1.26366358       0.00000000
Si      -2.62726749       2.18758410       1.82372055       0.00000000
Si      -0.75590487      -0.35759808       3.84714440       0.00000000
