10
Lattice="16.28999089631971 0.0 0.0 0.0 16.28999089631971 0.0 0.0 0.0 34.40785480372833" Properties=species:S:1:pos:R:3:initial_magmoms:R:1 pbc="T T T"
Si      -1.27312866       1.35658233      -1.41557435       0.00000000
Si       1.07584047       1.88211402       1.04131990       0.00000000
Si       1.46453616      -1.36568844      -1.38852976       0.00000000
Si      -1.33382520      -1.29995829       1.62756126       0.00000000
Si       0.00663003      -0.07218099       3.26754376       0.00000000
Si       2.32127613       0.69628347       2.64101078       0.00000000
Si      -0.90326421       3.35604951       1.19085652       0.00000000
Si      -2.59724502      -2.69187363       0.01593085       0.00000000
Si      -2.59638165      -0.00439830      -2.77516708       0.00000000
Si      -2.78298360       2.59481781      -0.02319091       0.00000000
