10
Lattice="16.28999089631971 0.0 0.0 0.0 16.28999089631971 0.0 0.0 0.0 34.40785480372833" Properties=species:S:1:pos:R:3:initial_magmoms:R:1 pbc="T T T"
Si      -1.87971939      -0.76123170      -1.21404743       0.00000000
Si       1.97910468      -1.47393549      -0.14953662       0.00000000
Si       0.94485258       2.02457007      -1.09134895       0.00000000
Si      -0.54004608      -1.48133115       2.14309443       0.00000000
Si      -0.36986445      -1.99946718      -2.60643087       0.00000000
Si       2.37052080       0.74156967      -2.59645258       0.00000000
Si       0.90326421      -3.35604951      -1.19085652       0.00000000
Si       0.09629019       0.10888236       3.72306960       0.00000000
Si      -3.25653390      -2.08684674       0.20655047       0.00000000
Si       3.76988067      -0.60162228      -1.32766223       0.00000000
