10
Lattice="16.28999089631971 0.0 0.0 0.0 16.28999089631971 0.0 0.0 0.0 34.40785480372833" Properties=species:S:1:pos:R:3:initial_magmoms:R:1 pbc="T T T"
Si       2.03812335      -0.65757843       0.90255294       0.00000000
Si      -0.63633627      -1.59021351      -1.57997517       0.00000000
Si      -1.50280137       0.53587584       1.71327127       0.00000000
Si       0.96806583       2.12366214      -0.25647629       0.00000000
Si       2.09144052       1.24654338       2.34124938       0.00000000
Si      -2.39531418      -2.83055040      -0.35354091       0.00000000
Si      -0.09629019      -0.10888236      -3.72306960       0.00000000
Si      -3.63480399       0.55182375       0.64693685       0.00000000
Si      -0.91316853      -0.84514149       3.52429531       0.00000000
Si      -0.67759884       3.87498375      -0.58307583       0.00000000
