10
Lattice="16.28999089631971 0.0 0.0 0.0 16.28999089631971 0.0 0.0 0.0 34.40785480372833" Properties=species:S:1:pos:R:3:initial_magmoms:R:1 pbc="T T T"
Si      -0.58963284       1.38101733      -1.81102404       0.00000000
Si       0.80080011      -2.14519752      -0.56569986       0.00000000
Si      -2.06045694      -0.24242778       1.13532221       0.00000000
Si       1.90006560       1.22476365       0.75570014       0.00000000
Si      -0.55695510       3.41524737      -0.55486138       0.00000000
Si       0.95557140       3.28021956       1.30887553       0.00000000
Si       1.51671303      -2.96737011       1.52767520       0.00000000
Si      -3.40374663      -1.22352561      -0.60678286       0.00000000
Si       0.91316853       0.84514149      -3.52429531       0.00000000
Si      -1.64229264      -2.01702780       2.71295764       0.00000000
