10
Lattice="16.28999089631971 0.0 0.0 0.0 16.28999089631971 0.0 0.0 0.0 34.40785480372833" Properties=species:S:1:pos:R:3:initial_magmoms:R:1 pbc="T T T"
Si       1.31444010       1.21042845       1.62365738       0.00000000
Si       1.64525742      -1.11808044      -1.47565049       0.00000000
Si      -0.29379015       1.91197359      -1.69458780       0.00000000
Si      -1.39313709      -1.50750918       1.60540400       0.00000000
Si       2.67581169       2.74748769       0.22433934       0.00000000
Si       2.47933800      -2.93926986      -0.04620977       0.00000000
Si      -0.10147041       2.40104826       3.12923584       0.00000000
Si       0.92955627      -0.57840903      -3.82718783       0.00000000
Si      -3.37900212      -2.24632584       0.32463829       0.00000000
Si       2.61764010      -0.30915162       3.11425121       0.00000000
