10
Lattice="16.28999089631971 0.0 0.0 0.0 16.28999089631971 0.0 0.0 0.0 34.40785480372833" Properties=species:S:1:pos:R:3:initial_magmoms:R:1 pbc="T T T"
Si       0.96133806       1.85284089      -1.07541810       0.00000000
Si      -2.24528328      -0.00726534       0.78401782       0.00000000
Si      -0.03267774      -2.03423004      -1.25616267       0.00000000
Si       1.51252650      -0.13502781       1.86373690       0.00000000
Si       3.21939270       1.15830045      -0.71454832       0.00000000
Si       0.55695510      -3.41524737       0.55486138       0.00000000
Si       2.45702070      -2.19048372       1.31056151       0.00000000
Si      -2.59413363       2.19962650       1.58747608       0.00000000
Si      -2.16468036      -2.01828213      -2.32249709       0.00000000
Si      -3.59429076      -0.56879793      -1.11264742       0.00000000
