10
Lattice="16.28999089631971 0.0 0.0 0.0 16.28999089631971 0.0 0.0 0.0 34.40785480372833" Properties=species:S:1:pos:R:3:initial_magmoms:R:1 pbc="T T T"
Si       0.00050499       2.35156968       0.37855543       0.00000000
Si      -2.07656775      -1.36028016       0.00588375       0.00000000
Si       2.20608954       0.49655178      -1.06726344       0.00000000
Si       0.63157959      -0.83069226       2.30543078       0.00000000
Si      -0.36970155      -0.06695190      -2.57240148       0.00000000
Si      -1.12573674       2.09840191       2.38811291       0.00000000
Si      -0.02753010      -2.54881485      -2.48603771       0.00000000
Si       3.50259435       0.28272924       0.93747694       0.00000000
Si      -1.13207355      -3.41573607      -0.54729164       0.00000000
Si      -0.73458126       3.30777314      -1.55805735       0.00000000
