10
Lattice="16.28999089631971 0.0 0.0 0.0 16.28999089631971 0.0 0.0 0.0 34.40785480372833" Properties=species:S:1:pos:R:3:initial_magmoms:R:1 pbc="T T T"
Si       1.36036161      -1.35113170      -1.36076260       0.00000000
Si      -1.35674523       1.36145304      -1.35955833       0.00000000
Si      -1.35001746      -1.35995599       1.37624615       0.00000000
Si       1.37482713       1.37896479       1.36530444       0.00000000
Si      -2.53412127       0.15754059       2.75094394       0.00000000
Si       2.71195446      -2.70971260       0.00154835       0.00000000
Si      -2.71376739      -2.70991200      -0.00092901       0.00000000
Si       0.00100998      -2.71114247      -2.71842850       0.00000000
Si      -2.71336014       0.00244350      -2.71825646       0.00000000
Si       2.70743324       2.72517039      -0.00667513       0.00000000
