10
Lattice="16.28999089631971 0.0 0.0 0.0 16.28999089631971 0.0 0.0 0.0 34.40785480372833" Properties=species:S:1:pos:R:3:initial_magmoms:R:1 pbc="T T T"
Si      -0.83849517      -2.16556721      -0.25582254       0.00000000
Si       2.15527193      -0.42148257       0.84171982       0.00000000
Si      -1.26462528       0.70168198       1.88138814       0.00000000
Si       0.10969686       1.30960197      -2.01781536       0.00000000
Si      -0.53390475      -2.54269700       2.03704937       0.00000000
Si       1.76086333      -2.18061917       2.39939869       0.00000000
Si      -1.34731332       3.25156545      -1.24157373       0.00000000
Si      -3.48244362       0.67047196       1.20424118       0.00000000
Si       0.84650400      -3.45071789      -1.33182558       0.00000000
Si       0.59112111       3.80863458       0.34862058       0.00000000
