10
Lattice="16.28999089631971 0.0 0.0 0.0 16.28999089631971 0.0 0.0 0.0 34.40785480372833" Properties=species:S:1:pos:R:3:initial_magmoms:R:1 pbc="T T T"
Si       1.66755843       1.18242594      -1.22533321       0.00000000
Si       0.85294440      -1.60928910       1.54229855       0.00000000
Si      -1.74817764      -1.00033795      -1.44977577       0.00000000
Si      -0.23690547       1.49006259       2.05504468       0.00000000
Si      -1.95196554       2.69516421      -0.78935104       0.00000000
Si       0.20186568       3.00890961      -1.77520544       0.00000000
Si      -2.52216441       1.94773014       1.82045180       0.00000000
Si      -3.29696568       0.87894324      -1.51958935       0.00000000
Si      -1.06170075      -2.88804500       2.33147754       0.00000000
Si       3.46047071       1.79771553       0.32040612       0.00000000
