10
Lattice="16.28999089631971 0.0 0.0 0.0 16.28999089631971 0.0 0.0 0.0 34.40785480372833" Properties=species:S:1:pos:R:3:initial_magmoms:R:1 pbc="T T T"
Si      -1.32041853       0.72813042       1.75284033       0.00000000
Si      -0.36813771      -2.26367469      -0.45363341       0.00000000
Si       2.11445570      -0.48599586       1.12881912       0.00000000
Si      -0.49018239       0.97707420      -2.19659868       0.00000000
Si       1.10472264      -2.06493669      -2.30556842       0.00000000
Si       1.52308242       0.13194900      -3.06236960       0.00000000
Si      -1.41669243       3.04903188       1.57763543       0.00000000
Si      -3.57573645       0.18208962       1.19075330       0.00000000
Si      -2.59680519      -0.04230513      -2.76398452       0.00000000
Si       0.42575544      -3.64370648       1.25853681       0.00000000
