10
Lattice="16.28999089631971 0.0 0.0 0.0 16.28999089631971 0.0 0.0 0.0 34.40785480372833" Properties=species:S:1:pos:R:3:initial_magmoms:R:1 pbc="T T T"
Si       1.35666378       1.35852084      -1.35601432       0.00000000
Si       1.35728280      -1.35738054       1.35735622       0.00000000
Si      -1.35822124      -1.35881406      -1.35587668       0.00000000
Si      -1.35894487       1.35796698       1.35776912       0.00000000
Si      -2.71445876      -0.00184077       2.71268238       0.00000000
Si       2.71422351      -2.71443528      -0.00037849       0.00000000
Si      -0.00110935       2.71438641       2.71557264       0.00000000
Si      -2.71517552       2.71511946      -0.00027526       0.00000000
Si       2.71498914       2.71544526      -0.00003441       0.00000000
Si      -2.71571309      -2.71518462       0.00072257       0.00000000
