10
Lattice="16.28999089631971 0.0 0.0 0.0 16.28999089631971 0.0 0.0 0.0 34.40785480372833" Properties=species:S:1:pos:R:3:initial_magmoms:R:1 pbc="T T T"
Si       1.40116062       0.95711895      -1.57044419       0.00000000
Si      -0.97339266      -1.81454310      -1.18941139       0.00000000
Si       1.53168747      -0.82098342       1.63310093       0.00000000
Si      -1.53249804       1.82333970       0.33908960       0.00000000
Si      -0.13652649      -1.20132234       3.31316860       0.00000000
Si      -2.94014952       1.57631814      -1.59229319       0.00000000
Si       0.49230009      -3.64102677      -0.63953915       0.00000000
Si      -3.12722388      -2.12828850      -0.20355698       0.00000000
Si       0.09418878       2.22198858      -3.07107480       0.00000000
Si       2.28521237      -3.02573718       0.90620018       0.00000000
