10
Lattice="16.28999089631971 0.0 0.0 0.0 16.28999089631971 0.0 0.0 0.0 34.40785480372833" Properties=species:S:1:pos:R:3:initial_magmoms:R:1 pbc="T T T"
Si      -1.33260611      -1.34620560       1.37197957       0.00000000
Si      -1.34809790       1.34860023      -1.35687451       0.00000000
Si       1.36677625      -1.36432008      -1.35322728       0.00000000
Si       1.35178131       1.36474362       1.40143271       0.00000000
Si       0.36315098      -2.35530594       2.72011448       0.00000000
Si       2.43451245      -0.32663079       2.71467804       0.00000000
Si      -2.70512006       2.70655092       0.00536763       0.00000000
Si      -2.70611375      -0.00607617      -2.71202863       0.00000000
Si       0.00741599       2.70840798      -2.71178778       0.00000000
Si      -2.70743324      -2.72517039       0.00667513       0.00000000
