10
Lattice="16.28999089631971 0.0 0.0 0.0 16.28999089631971 0.0 0.0 0.0 34.40785480372833" Properties=species:S:1:pos:R:3:initial_magmoms:R:1 pbc="T T T"
Si       0.07061715      -2.34378891      -0.26153425       0.00000000
Si       2.07674694       0.92825307      -0.62746199       0.00000000
Si      -0.42634188       0.43046325       2.29132356       0.00000000
Si      -1.64634885       0.94832235      -1.45321656       0.00000000
Si       1.67764194       1.49690439      -2.81463291       0.00000000
Si       2.31624252       2.61333954       0.98812533       0.00000000
Si       1.70909793       0.03419271       3.30198604       0.00000000
Si      -2.05602606      -1.12112667       2.92656173       0.00000000
Si       0.55203552      -3.24097695       1.88765038       0.00000000
Si       0.11730429       3.53336616       1.39950587       0.00000000
