10
Lattice="16.28999089631971 0.0 0.0 0.0 16.28999089631971 0.0 0.0 0.0 34.40785480372833" Properties=species:S:1:pos:R:3:initial_magmoms:R:1 pbc="T T T"
Si      -1.27102725       1.97286561      -0.02945314       0.00000000
Si       1.52603091      -1.46580678      -1.01771610       0.00000000
Si      -1.60946829      -1.53173241       0.89756380       0.00000000
Si       1.99627434       0.91408077       1.04021885       0.00000000
Si      -2.53967616       0.63372987       1.51814422       0.00000000
Si       0.81223569       1.51584966       3.12148233       0.00000000
Si      -0.30107178       3.17208654       1.75325322       0.00000000
Si       3.48383220      -0.92271447       0.75752375       0.00000000
Si       0.40338927      -3.58306695      -0.82492878       0.00000000
Si       1.30880376      -1.10605842      -3.34410128       0.00000000
