10
Lattice="16.28999089631971 0.0 0.0 0.0 16.28999089631971 0.0 0.0 0.0 34.40785480372833" Properties=species:S:1:pos:R:3:initial_magmoms:R:1 pbc="T T T"
Si      -1.30282533      -1.35933534      -1.54034215       0.00000000
Si       0.56832552       1.93010340      -1.37081456       0.00000000
Si       1.21358871      -1.48411674       1.50221681       0.00000000
Si      -1.49457492       1.20689794       1.52895517       0.00000000
Si       2.40582842       2.59100662       0.09341394       0.00000000
Si      -2.41613280       0.29690154      -2.90857126       0.00000000
Si      -2.69939961      -2.68195302       0.06652074       0.00000000
Si      -2.92356630       2.50960712       0.20511910       0.00000000
Si       2.56778034      -0.13460427       2.89144161       0.00000000
Si      -0.14977026       2.58628252       2.89732536       0.00000000
