10
Lattice="16.28999089631971 0.0 0.0 0.0 16.28999089631971 0.0 0.0 0.0 34.40785480372833" Properties=species:S:1:pos:R:3:initial_magmoms:R:1 pbc="T T T"
Si       1.35419163       1.34951247       1.38922480       0.00000000
Si      -1.36399428      -1.36309833       1.38736677       0.00000000
Si      -1.21358871       1.48411674      -1.50221681       0.00000000
Si       1.31427461      -1.47321873      -1.44729152       0.00000000
Si      -2.70816363       2.69101468       0.02673836       0.00000000
Si       2.69277677       2.72445230       0.00960324       0.00000000
Si       2.69712620      -2.72098386       0.03825123       0.00000000
Si      -2.70861975      -2.72288979      -0.01107245       0.00000000
Si       2.70896903      -0.00289962       2.75101963       0.00000000
Si      -0.00904517       2.71269484       2.75019385       0.00000000
