10
Lattice="16.28999089631971 0.0 0.0 0.0 16.28999089631971 0.0 0.0 0.0 34.40785480372833" Properties=species:S:1:pos:R:3:initial_magmoms:R:1 pbc="T T T"
Si       1.07468388       1.88783181      -0.60162168       0.00000000
Si       0.39910500      -0.56865132       2.18717092       0.00000000
Si      -2.21944734       0.31833918      -0.57732972       0.00000000
Si       1.07870751      -1.37305152      -1.54374368       0.00000000
Si      -2.27276451      -1.58578263      -2.01602616       0.00000000
Si       2.23197013      -1.98293283       1.71564542       0.00000000
Si       0.01417230       3.36370581       0.84144456       0.00000000
Si       1.44309852      -3.24464220      -0.17066306       0.00000000
Si      -1.67764194      -1.49690439       2.81463291       0.00000000
Si      -3.32399079      -0.54858204       1.36141635       0.00000000
