10
Lattice="16.28999089631971 0.0 0.0 0.0 16.28999089631971 0.0 0.0 0.0 34.40785480372833" Properties=species:S:1:pos:R:3:initial_magmoms:R:1 pbc="T T T"
Si       1.35493704       1.35939578       1.35542938       0.00000000
Si       1.35640314      -1.35774431      -1.35656484       0.00000000
Si      -1.35585254      -1.35774431       1.35794116       0.00000000
Si      -1.35882709       1.35747844      -1.35701214       0.00000000
Si       0.00399105       2.70945233       2.71096199       0.00000000
Si       2.71389771       2.71389950      -0.00055053       0.00000000
Si       2.71381626      -2.71520630       0.00037849       0.00000000
Si       0.00004887      -2.71515743      -2.71392106       0.00000000
Si      -0.00410508       2.71495835      -2.71433396       0.00000000
Si       2.71559187      -0.00148147      -2.71488448       0.00000000
