10
Lattice="16.28999089631971 0.0 0.0 0.0 16.28999089631971 0.0 0.0 0.0 34.40785480372833" Properties=species:S:1:pos:R:3:initial_magmoms:R:1 pbc="T T T"
Si       0.89753990       1.88765262       1.10208421       0.00000000
Si      -0.21318251      -1.86992910       1.43738894       0.00000000
Si       1.78163078      -1.01165787      -1.25337563       0.00000000
Si      -2.11445570       0.48599586      -1.12881912       0.00000000
Si      -2.48259341      -1.77767883      -1.58245253       0.00000000
Si       1.16866415       3.14563158      -0.89047578       0.00000000
Si      -1.68870026      -3.15771062       0.12971769       0.00000000
Si      -3.43487423       1.21412628       0.62402120       0.00000000
Si       1.06387872       1.98470844      -3.01278786       0.00000000
Si      -1.25470208      -1.13117760       3.40369572       0.00000000
