10
Lattice="16.28999089631971 0.0 0.0 0.0 16.28999089631971 0.0 0.0 0.0 34.40785480372833" Properties=species:S:1:pos:R:3:initial_magmoms:R:1 pbc="T T T"
Si      -1.91317905       1.33221249       0.24395183       0.00000000
Si       1.73850138       0.16389369       1.59236200       0.00000000
Si       0.75649131       1.21616253      -1.90258339       0.00000000
Si      -0.31253994      -2.30265666      -0.55128296       0.00000000
Si      -1.40388849      -0.55537497       2.67971964       0.00000000
Si      -2.31718734      -1.84337640      -1.75087908       0.00000000
Si      -3.56056880      -0.26406090      -0.38017260       0.00000000
Si       0.88526376      -1.36881612       3.21968240       0.00000000
Si       3.60282672      -0.18370233       0.24753025       0.00000000
Si       1.59927075      -2.62936890      -1.91906477       0.00000000
