10
Lattice="16.28999089631971 0.0 0.0 0.0 16.28999089631971 0.0 0.0 0.0 34.40785480372833" Properties=species:S:1:pos:R:3:initial_magmoms:R:1 pbc="T T T"
Si      -1.40116062      -0.95711895       1.57044419       0.00000000
Si      -1.30697184       1.26486963      -1.50063061       0.00000000
Si       1.64738975       1.59627339       0.62412443       0.00000000
Si       1.24338146      -1.57931550      -1.37070648       0.00000000
Si       0.40540431       1.68818157      -3.00215583       0.00000000
Si       1.24780582       3.11484348      -1.26841187       0.00000000
Si       3.56056880       0.26406090       0.38017260       0.00000000
Si      -2.93365866       0.86622075       1.90953379       0.00000000
Si       0.13052685      -1.77810237       3.20354511       0.00000000
Si      -2.37455328      -2.77166205       0.38103280       0.00000000
