10
Lattice="16.28999089631971 0.0 0.0 0.0 16.28999089631971 0.0 0.0 0.0 34.40785480372833" Properties=species:S:1:pos:R:3:initial_magmoms:R:1 pbc="T T T"
Si       0.01337409       1.60769268       1.71096594       0.00000000
Si       2.28915225      -0.81344115       0.53996277       0.00000000
Si      -2.02615346      -1.48678830       0.14365287       0.00000000
Si       1.40388849       0.55537497      -2.67971964       0.00000000
Si      -0.50929056       1.88758746      -2.43576781       0.00000000
Si       3.14238987       0.71926866      -1.08735764       0.00000000
Si       0.86480352       0.37427904       3.48426248       0.00000000
Si       0.19531710       3.61015722      -0.87998138       0.00000000
Si       1.80351477       3.13836624       0.98836618       0.00000000
Si      -2.15668031       0.29131407      -3.05989224       0.00000000
