10
Lattice="16.28999089631971 0.0 0.0 0.0 16.28999089631971 0.0 0.0 0.0 34.40785480372833" Properties=species:S:1:pos:R:3:initial_magmoms:R:1 pbc="T T T"
Si      -1.33959186      -1.35153243      -1.38130410       0.00000000
Si       1.25600787      -1.49320656       1.35350254       0.00000000
Si       1.37269314       1.36301688      -1.38175141       0.00000000
Si      -1.37912769       1.43793459       1.50069943       0.00000000
Si       2.52700254      -0.08006535       2.78187662       0.00000000
Si      -2.68004220       2.71686249      -0.02917788       0.00000000
Si      -2.71195920      -2.69777061       0.01238683       0.00000000
Si      -2.69848900       0.00231318      -2.74303013       0.00000000
Si       2.74004316      -2.70606222      -0.02460163       0.00000000
Si       0.01769094      -2.71179630      -2.74261723       0.00000000
