10
Lattice="16.28999089631971 0.0 0.0 0.0 16.28999089631971 0.0 0.0 0.0 34.40785480372833" Properties=species:S:1:pos:R:3:initial_magmoms:R:1 pbc="T T T"
Si      -2.21287270      -0.55506546       0.26779648       0.00000000
Si       0.85638159      -2.18968551       0.01379756       0.00000000
Si       0.23568372       0.95770539       2.14553739       0.00000000
Si       0.09013257       1.12363533      -2.08439460       0.00000000
Si      -1.81328877      -2.07363555       2.16033278       0.00000000
Si       0.24496902       3.25037628       1.67091518       0.00000000
Si       2.48099958       0.56537703       2.75844485       0.00000000
Si       0.22600746      -3.13934364      -2.04472232       0.00000000
Si       2.42835030       1.14590376      -2.67197787       0.00000000
Si      -0.79482168       3.33024615      -1.66035196       0.00000000
