10
Lattice="10.86 0.0 0.0 0.0 10.86 0.0 0.0 0.0 10.86" Properties=species:S:1:pos:R:3:initial_magmoms:R:1 pbc="T T T"
Si       1.12669242       1.22886330       1.30806528       0.00000000
Si       1.12669242      -1.48613670      -1.40693472       0.00000000
Si      -1.58830758      -1.48613670       1.30806528       0.00000000
Si      -2.60512938       0.42943698      -0.43778832       0.00000000
Si       2.48419242       2.58636330      -0.04943472       0.00000000
Si       2.48419242      -0.12863670       2.66556528       0.00000000
Si       2.48419242      -0.12863670      -2.76443472       0.00000000
Si       2.48419242      -2.84363670      -0.04943472       0.00000000
Si       0.48104370       2.04731634       3.14770584       0.00000000
Si      -0.23080758      -2.84363670       2.66556528       0.00000000
