10
Lattice="10.86 0.0 0.0 0.0 10.86 0.0 0.0 0.0 10.86" Properties=species:S:1:pos:R:3:initial_magmoms:R:1 pbc="T T T"
Si      -1.12247874       1.24215594      -1.43921064       0.00000000
Si      -1.12247874      -1.47284406       1.27578936       0.00000000
Si       1.59252126       1.24215594       1.27578936       0.00000000
Si      -2.47997874       2.59965594      -0.08171064       0.00000000
Si      -2.47997874      -0.11534406       2.63328936       0.00000000
Si       0.23502126       2.59965594       2.63328936       0.00000000
Si      -2.34417444      -0.44882208      -2.87367546       0.00000000
Si       0.23502126       2.59965594      -2.79671064       0.00000000
Si       0.23502126      -2.83034406       2.63328936       0.00000000
Si       2.95002126       2.59965594      -0.08171064       0.00000000
