10
Lattice="10.86 0.0 0.0 0.0 10.86 0.0 0.0 0.0 10.86" Properties=species:S:1:pos:R:3:initial_magmoms:R:1 pbc="T T T"
Si      -1.16998038       1.52084526      -1.24869366       0.00000000
Si       1.59273846      -1.42160658      -1.01444346       0.00000000
Si      -1.12226154      -1.42160658       1.70055654       0.00000000
Si       1.59273846       1.29339342       1.70055654       0.00000000
Si      -2.46264618       0.01769094      -2.32561470       0.00000000
Si       0.23523846      -2.77910658      -2.37194346       0.00000000
Si       2.81397804      -0.06260790      -2.38866786       0.00000000
Si      -2.47976154      -2.77910658       0.34305654       0.00000000
Si      -2.52130104       2.81712744       0.39933306       0.00000000
Si      -2.47976154      -0.06410658       3.05805654       0.00000000
