10
Lattice="10.86 0.0 0.0 0.0 10.86 0.0 0.0 0.0 10.86" Properties=species:S:1:pos:R:3:initial_magmoms:R:1 pbc="T T T"
Si      -1.22123958      -1.35899868       1.37422440       0.00000000
Si       1.49376042      -1.35899868      -1.34077560       0.00000000
Si       1.49376042       1.35600132       1.37422440       0.00000000
Si      -2.52805596       0.18240456      -2.65201200       0.00000000
Si      -2.81397804       0.06260790       2.38866786       0.00000000
Si      -2.57873958      -2.71649868       0.01672440       0.00000000
Si       0.13626042      -2.71649868      -2.69827560       0.00000000
Si       0.13626042      -2.71649868       2.73172440       0.00000000
Si       2.85126042      -0.00149868      -2.69827560       0.00000000
Si       0.06738630       2.91091440       2.64560460       0.00000000
