10
Lattice="10.86 0.0 0.0 0.0 10.86 0.0 0.0 0.0 10.86" Properties=species:S:1:pos:R:3:initial_magmoms:R:1 pbc="T T T"
Si       1.14617526       1.50485934       1.06714704       0.00000000
Si      -1.56882474      -1.21014066       1.06714704       0.00000000
Si       1.14617526      -1.21014066      -1.64785296       0.00000000
Si       2.50367526       0.14735934       2.42464704       0.00000000
Si      -0.21132474      -2.56764066       2.42464704       0.00000000
Si       2.50367526      -2.56764066      -0.29035296       0.00000000
Si      -0.21132474       2.86235934       2.42464704       0.00000000
Si      -2.92632474       0.14735934       2.42464704       0.00000000
Si       2.50367526       2.86235934      -0.29035296       0.00000000
Si      -2.81503146      -2.68980480      -0.26936058       0.00000000
