10
Lattice="16.28999089631971 0.0 0.0 0.0 16.28999089631971 0.0 0.0 0.0 34.33025523377368" Properties=species:S:1:pos:R:3:initial_magmoms:R:1 pbc="T T T"
Si      -1.34791605       1.34930724      -1.35422634       0.00000000
Si       1.35628911       1.35625981       1.35546222       0.00000000
Si      -1.35646830      -1.35826085       1.35553089       0.00000000
Si       1.35511623      -1.35979211      -1.36153868       0.00000000
Si      -2.69257410      -0.01690967      -2.72740985       0.00000000
Si      -0.00351864      -2.69969348      -2.72347560       0.00000000
Si      -0.00013032       2.71388796       2.71236632       0.00000000
Si       2.71492398      -0.00107024       2.71240065       0.00000000
Si      -2.71309950      -2.71446851      -0.00291807       0.00000000
Si       2.71676475       2.71080915      -0.00487490       0.00000000
