10
Lattice="16.28999089631971 0.0 0.0 0.0 16.28999089631971 0.0 0.0 0.0 34.33025523377368" Properties=species:S:1:pos:R:3:initial_magmoms:R:1 pbc="T T T"
Si      -1.35707103      -1.35669473       1.35638914       0.00000000
Si       1.35641943      -1.35762815      -1.35690410       0.00000000
Si      -1.35734796       1.35751086      -1.35783101       0.00000000
Si       1.35935163       1.35874890       1.35759070       0.00000000
Si       0.00013032      -2.71388796      -2.71236632       0.00000000
Si       2.71239903      -0.00159642       2.71638296       0.00000000
Si      -2.71487511      -2.71468849       0.00030897       0.00000000
Si       2.71505430      -2.71495820       0.00003433       0.00000000
Si       2.71516833       2.71497285      -0.00013732       0.00000000
Si       0.00035838       2.71687878      -2.71349922       0.00000000
