10
Lattice="16.28999089631971 0.0 0.0 0.0 16.28999089631971 0.0 0.0 0.0 34.33025523377368" Properties=species:S:1:pos:R:3:initial_magmoms:R:1 pbc="T T T"
Si      -1.09082727      -1.17258678      -1.68256108       0.00000000
Si       1.85860755      -1.38784284       0.55206514       0.00000000
Si      -1.52490690       0.06726141       1.89365794       0.00000000
Si       1.29881799       1.79136243      -1.04923618       0.00000000
Si       1.64584386       2.84902326       1.01325805       0.00000000
Si      -3.00991959       0.23983767      -2.14560782       0.00000000
Si       1.73447775       1.41586164       2.96850450       0.00000000
Si       3.02366835      -0.44569440       2.32683734       0.00000000
Si      -0.47286612       1.21226922       3.66688527       0.00000000
Si       3.41527995      -1.39378869      -1.23925425       0.00000000
