10
Lattice="16.28999089631971 0.0 0.0 0.0 16.28999089631971 0.0 0.0 0.0 34.33025523377368" Properties=species:S:1:pos:R:3:initial_magmoms:R:1 pbc="T T T"
Si      -1.03623948      -1.61855322       1.36183534       0.00000000
Si      -0.74298690       2.25109881      -0.29654491       0.00000000
Si       1.63520649       1.07957088       1.38829368       0.00000000
Si      -0.35787501      -0.44891982      -2.38265837       0.00000000
Si       0.66569085       2.85451299      -2.20901584       0.00000000
Si       0.27740241       2.39137200       2.82433592       0.00000000
Si      -2.45680893      -0.36026964       2.81985926       0.00000000
Si      -2.27421432      -1.99478543      -2.30229119       0.00000000
Si      -1.91865249      -3.27866291      -0.24978708       0.00000000
Si      -2.72668536       2.21048784      -1.53092426       0.00000000
