10
Lattice="16.28999089631971 0.0 0.0 0.0 16.28999089631971 0.0 0.0 0.0 34.33025523377368" Properties=species:S:1:pos:R:3:initial_magmoms:R:1 pbc="T T T"
Si      -0.00658116      -1.72745676      -1.60969305       0.00000000
Si       1.01380815      -1.58718357       1.51118778       0.00000000
Si       1.23333219       1.52691057      -1.47192566       0.00000000
Si      -1.69720623       1.11174363       1.48661417       0.00000000
Si       2.35590867      -0.25462899       2.87763226       0.00000000
Si       2.37161223      -2.89898469       0.07514554       0.00000000
Si       2.53969245       2.75595849       0.06629176       0.00000000
Si      -0.35450298       2.45974113       2.87732329       0.00000000
Si      -1.99027962      -1.76806773      -2.84407240       0.00000000
Si      -2.92073184       2.65911444       0.14734210       0.00000000
