10
Lattice="16.28999089631971 0.0 0.0 0.0 16.28999089631971 0.0 0.0 0.0 34.33025523377368" Properties=species:S:1:pos:R:3:initial_magmoms:R:1 pbc="T T T"
Si       1.35581670       1.35622395      -1.35772802       0.00000000
Si       1.35304740      -1.36034532       1.35879226       0.00000000
Si      -1.35935163      -1.35874890      -1.35759070       0.00000000
Si      -1.36464588       1.35677781       1.36037145       0.00000000
Si       2.71404432       2.71259451       0.00075527       0.00000000
Si       2.71238274      -0.00001629      -2.71514707       0.00000000
Si      -0.00117288       2.71347417      -2.71545605       0.00000000
Si       2.71414206      -2.71578572      -0.00013732       0.00000000
Si      -2.71472850       2.71539639      -0.00147620       0.00000000
Si      -0.00293220      -2.71637705      -2.71449480       0.00000000
