10
Lattice="16.28999089631971 0.0 0.0 0.0 16.28999089631971 0.0 0.0 0.0 34.33025523377368" Properties=species:S:1:pos:R:3:initial_magmoms:R:1 pbc="T T T"
Si       1.08379162      -0.56577939      -1.93306909       0.00000000
Si      -1.42757482       1.81180638      -0.26818810       0.00000000
Si      -1.42053754      -1.88550953       0.09025429       0.00000000
Si       1.60732453       0.20975004       1.72609187       0.00000000
Si       2.62009012       1.23367428      -2.00372080       0.00000000
Si      -2.46547588      -1.70444618      -1.99524122       0.00000000
Si       1.67230534      -2.88126836      -1.43208740       0.00000000
Si       0.12574251      -3.64763141       0.24401959       0.00000000
Si       3.27462232       1.62974934       0.70892017       0.00000000
Si      -0.19034865       3.47768694      -1.54863868       0.00000000
