10
Lattice="16.28999089631971 0.0 0.0 0.0 16.28999089631971 0.0 0.0 0.0 34.33025523377368" Properties=species:S:1:pos:R:3:initial_magmoms:R:1 pbc="T T T"
Si      -1.38002364       1.18806228      -1.56020798       0.00000000
Si       1.07717625       1.68028092       1.33661490       0.00000000
Si      -1.83150099      -0.85377519       1.39295088       0.00000000
Si       1.32098868      -1.51523064      -1.55354791       0.00000000
Si      -2.61296487       2.55195882      -0.01840103       0.00000000
Si       2.65917960       2.51274879      -0.16814968       0.00000000
Si      -0.68299083       3.49524756       1.22157415       0.00000000
Si      -2.72557764      -2.71707426       0.02801350       0.00000000
Si      -0.02907765       2.53697202      -2.94049099       0.00000000
Si       2.86502004      -2.67871131      -0.21219543       0.00000000
