10
Lattice="16.28999089631971 0.0 0.0 0.0 16.28999089631971 0.0 0.0 0.0 34.33025523377368" Properties=species:S:1:pos:R:3:initial_magmoms:R:1 pbc="T T T"
Si      -0.75668679      -2.21508162      -0.06690970       0.00000000
Si       1.02452697       0.51841296       2.04553507       0.00000000
Si      -1.95255198       1.34034120      -0.24717798       0.00000000
Si       1.59400908      -0.06134814      -1.92493282       0.00000000
Si      -1.01682180       2.62969470      -2.10561305       0.00000000
Si       3.00073203      -1.73297907      -0.69560002       0.00000000
Si       1.28337507      -3.43730403      -0.35782445       0.00000000
Si      -0.07978842       2.41026840       2.86946166       0.00000000
Si      -3.48477309      -0.11163537      -1.55663763       0.00000000
Si      -2.59258608      -2.36944566      -1.69471400       0.00000000
