10
Lattice="16.28999089631971 0.0 0.0 0.0 16.28999089631971 0.0 0.0 0.0 34.33025523377368" Properties=species:S:1:pos:R:3:initial_magmoms:R:1 pbc="T T T"
Si       1.11431745      -0.97161705      -1.84157891       0.00000000
Si       0.13089015      -2.10453768       1.18676326       0.00000000
Si      -2.22684300       0.05276331      -0.96004612       0.00000000
Si       0.78418431       2.28011130      -0.62439903       0.00000000
Si       1.20088251       1.30447062       2.04955171       0.00000000
Si       3.28302144      -1.32458877      -0.93388646       0.00000000
Si       2.60333748      -2.34036801       1.10265408       0.00000000
Si      -2.18087262       2.18002554      -2.06180762       0.00000000
Si       0.03106503       2.48396436      -2.80722087       0.00000000
Si       0.14056641      -3.10171374      -2.22418982       0.00000000
