10
Lattice="16.28999089631971 0.0 0.0 0.0 16.28999089631971 0.0 0.0 0.0 34.33025523377368" Properties=species:S:1:pos:R:3:initial_magmoms:R:1 pbc="T T T"
Si      -1.23198012       0.82420884       1.81947021       0.00000000
Si      -1.80722889      -0.31711743      -1.46624602       0.00000000
Si       0.98704368      -2.15712180       0.33767258       0.00000000
Si       1.48737474       1.75844034      -0.74362807       0.00000000
Si      -0.32004963      -0.26202465      -3.32474976       0.00000000
Si       2.51626743      -0.05139495       2.25247797       0.00000000
Si       0.54977121       1.77275925       2.94467929       0.00000000
Si       3.31679061       0.55864926      -1.68829424       0.00000000
Si       1.62078984       3.22151040       1.19187847       0.00000000
Si       1.98695646      -2.36315772       2.42430099       0.00000000
