10
Lattice="16.28999089631971 0.0 0.0 0.0 16.28999089631971 0.0 0.0 0.0 34.33025523377368" Properties=species:S:1:pos:R:3:initial_magmoms:R:1 pbc="T T T"
Si      -0.73743201       1.38854331      -1.71833323       0.00000000
Si       1.82941587      -1.19979108      -0.94466616       0.00000000
Si      -1.48737474      -1.75844034       0.74362807       0.00000000
Si       0.13341510       1.46307006       1.93550654       0.00000000
Si       2.56267764      -2.06663085       1.11037840       0.00000000
Si       0.66502296      -2.25629532      -2.66523085       0.00000000
Si       1.23364170       2.78863623      -1.87759137       0.00000000
Si       1.02889269      -1.80983529       2.99610604       0.00000000
Si      -1.80742437      -2.02046499      -2.58112168       0.00000000
Si      -0.93760353       0.01431891       3.68830736       0.00000000
