10
Lattice="16.28999089631971 0.0 0.0 0.0 16.28999089631971 0.0 0.0 0.0 34.33025523377368" Properties=species:S:1:pos:R:3:initial_magmoms:R:1 pbc="T T T"
Si      -2.40085278      -0.53533827       0.32716752       0.00000000
Si      -0.70252254       1.57797972      -1.84219686       0.00000000
Si       1.66615749      -1.07898444      -1.84051467       0.00000000
Si       0.79881273       0.90445338       2.60587381       0.00000000
Si       0.20997810      -3.22638111       0.50784775       0.00000000
Si       2.76566733      -1.91140344       0.05187304       0.00000000
Si      -1.92749796       3.09124483      -0.49013333       0.00000000
Si      -3.15367884       1.67581746       0.94754990       0.00000000
Si      -2.83025718      -1.53945387      -1.93650212       0.00000000
Si       1.55911590       3.02777035       1.82413913       0.00000000
