10
Lattice="16.28999089631971 0.0 0.0 0.0 16.28999089631971 0.0 0.0 0.0 34.33025523377368" Properties=species:S:1:pos:R:3:initial_magmoms:R:1 pbc="T T T"
Si      -2.06607699       0.21668958       1.05864267       0.00000000
Si       0.65189322       2.23022222      -0.46620513       0.00000000
Si       1.76788854      -1.28818062       0.95640712       0.00000000
Si      -0.53958996      -0.91670346      -2.37908802       0.00000000
Si       2.15910918       1.67206166      -2.25409149       0.00000000
Si      -2.93449689       2.22264737       0.08791983       0.00000000
Si       3.41290161      -1.68806754      -0.72076411       0.00000000
Si      -3.45367222      -1.64025639       0.75979763       0.00000000
Si      -1.90006560       0.26626005       3.40563188       0.00000000
Si       0.68659092       0.49872391      -3.81677125       0.00000000
