10
Lattice="16.28999089631971 0.0 0.0 0.0 16.28999089631971 0.0 0.0 0.0 34.33025523377368" Properties=species:S:1:pos:R:3:initial_magmoms:R:1 pbc="T T T"
Si       1.36634004      -1.51096266      -1.13217812       0.00000000
Si      -2.11502844       0.09057240      -1.02197794       0.00000000
Si       0.07144794      -1.00607040       2.16321925       0.00000000
Si       1.24600581       1.91894571      -0.72646294       0.00000000
Si       1.78303824      -2.48660334       1.54177262       0.00000000
Si      -1.59871689      -1.61104842      -2.56958671       0.00000000
Si      -0.54053478       3.40167195      -1.08988322       0.00000000
Si       0.61322076      -1.30710960      -3.31499996       0.00000000
Si       1.05850791       0.60947406       3.55373269       0.00000000
Si      -2.43711432       2.30643594      -1.88497238       0.00000000
