10
Lattice="16.28999089631971 0.0 0.0 0.0 16.28999089631971 0.0 0.0 0.0 34.33025523377368" Properties=species:S:1:pos:R:3:initial_magmoms:R:1 pbc="T T T"
Si       1.12682817       1.22552928       1.69413038       0.00000000
Si      -0.01844028       1.11697272      -2.12167962       0.00000000
Si      -1.94694822      -0.80316216       1.36401046       0.00000000
Si       1.57693716      -1.90457793      -0.47979992       0.00000000
Si       0.50591853      -3.35332908       1.27300091       0.00000000
Si       3.32962713       1.38300471       0.76776226       0.00000000
Si      -1.00550025      -0.49857174      -3.51219305       0.00000000
Si      -2.77895997      -2.48161860      -0.11215701       0.00000000
Si      -0.65821374       3.35723283      -1.76237897       0.00000000
Si      -0.64123956       2.66756895       2.71185137       0.00000000
