10
Lattice="16.28999089631971 0.0 0.0 0.0 16.28999089631971 0.0 0.0 0.0 34.33025523377368" Properties=species:S:1:pos:R:3:initial_magmoms:R:1 pbc="T T T"
Si      -0.83201175      -1.67845644      -1.47616747       0.00000000
Si      -1.57923405       1.14160320       1.43411288       0.00000000
Si       0.99082296      -1.53210708       1.60847635       0.00000000
Si       1.94694822       0.80316216      -1.36401046       0.00000000
Si      -2.58639588       2.29537503      -0.40156122       0.00000000
Si       2.45286675      -2.55016692      -0.09100956       0.00000000
Si      -2.62874988      -2.51946027       0.15046959       0.00000000
Si       3.07377639       2.02869144       0.33011992       0.00000000
Si       0.67111542      -3.49871733      -1.21621863       0.00000000
Si      -0.40825998       2.44364661       2.95128585       0.00000000
