10
Lattice="16.28999089631971 0.0 0.0 0.0 16.28999089631971 0.0 0.0 0.0 34.33025523377368" Properties=species:S:1:pos:R:3:initial_magmoms:R:1 pbc="T T T"
Si       0.86807781      -1.33960815       1.67398851       0.00000000
Si      -1.12682817      -1.22552928      -1.69413038       0.00000000
Si       2.20279896       0.15747543      -0.92636812       0.00000000
Si      -1.76806773       1.44203967       1.01772099       0.00000000
Si       1.86595434       0.37478403       2.79726307       0.00000000
Si      -2.12362956       2.72591714      -1.03478313       0.00000000
Si      -3.07377639      -2.02869144      -0.33011992       0.00000000
Si      -0.84662388      -2.31875118       2.81732911       0.00000000
Si       3.38387283       1.10954448       1.16359032       0.00000000
Si       2.60923446      -2.40738507      -1.25580144       0.00000000
