10
Lattice="16.28999089631971 0.0 0.0 0.0 16.28999089631971 0.0 0.0 0.0 34.33025523377368" Properties=species:S:1:pos:R:3:initial_magmoms:R:1 pbc="T T T"
Si       1.35563751      -1.35257336      -1.35147991       0.00000000
Si      -1.36047564      -1.35454934       1.36033712       0.00000000
Si       1.35483930       1.36181142       1.35968485       0.00000000
Si      -1.36583505       1.36702422      -1.36157301       0.00000000
Si      -0.00320913      -2.69111519      -2.72437162       0.00000000
Si       2.71296918      -2.71182517       0.00230013       0.00000000
Si       2.69498502      -0.00252495      -2.73068152       0.00000000
Si      -2.71676475      -2.71080915       0.00487490       0.00000000
Si      -0.00184077      -2.71187939       2.71727555       0.00000000
Si       2.71363707       0.00272043       2.71717256       0.00000000
