10
Lattice="16.28999089631971 0.0 0.0 0.0 16.28999089631971 0.0 0.0 0.0 34.33025523377368" Properties=species:S:1:pos:R:3:initial_magmoms:R:1 pbc="T T T"
Si      -1.12161537      -1.88468784       1.02386610       0.00000000
Si      -1.22245047       1.06391619      -1.84865095       0.00000000
Si       1.01107143      -1.42757415      -1.73800447       0.00000000
Si       1.45960029       0.55074861       2.11440160       0.00000000
Si      -0.52901775       2.80984581      -0.33293500       0.00000000
Si       0.89248023      -3.12150006       1.77545880       0.00000000
Si       2.30197248      -2.89404556      -0.44866236       0.00000000
Si      -0.23918607       1.63742193       3.44507737       0.00000000
Si      -2.59413363      -3.05802559      -0.53881366       0.00000000
Si       1.87727589      -1.54772919       3.25505930       0.00000000
