10
Lattice="16.28999089631971 0.0 0.0 0.0 16.28999089631971 0.0 0.0 0.0 34.33025523377368" Properties=species:S:1:pos:R:3:initial_magmoms:R:1 pbc="T T T"
Si      -0.31837176       2.27579445      -0.11150473       0.00000000
Si       0.17806599      -0.96102855       2.08525520       0.00000000
Si      -1.99920654      -1.08045054      -0.57019153       0.00000000
Si       1.87738992      -0.41901138      -1.44097894       0.00000000
Si       0.55198665      -3.18146048       1.26977386       0.00000000
Si       1.57138227       2.89562895       1.11786240       0.00000000
Si      -1.10868111      -2.61187344      -2.08786430       0.00000000
Si       0.14941188       2.78459631      -2.35399259       0.00000000
Si       0.88565472      -1.81345819      -3.07705683       0.00000000
Si      -1.88209773      -0.18409329       3.25811469       0.00000000
