10
Lattice="16.28999089631971 0.0 0.0 0.0 16.28999089631971 0.0 0.0 0.0 34.33025523377368" Properties=species:S:1:pos:R:3:initial_magmoms:R:1 pbc="T T T"
Si      -1.35736425       1.35720135       1.36380448       0.00000000
Si       1.35930276      -1.35798327       1.36325520       0.00000000
Si      -1.37585340      -1.36391283      -1.36982944       0.00000000
Si       1.35523026       1.38222279      -1.37247974       0.00000000
Si       2.41390107      -0.13282866      -2.87256168       0.00000000
Si       2.71736748       2.70821250       0.00648842       0.00000000
Si      -2.71769328       2.70953199       0.00501222       0.00000000
Si      -2.71520091      -2.71396124       0.00937216       0.00000000
Si       2.71358820      -2.71682991       0.00278075       0.00000000
Si       0.00024435       2.71378368       2.72063992       0.00000000
