10
Lattice="16.28999089631971 0.0 0.0 0.0 16.28999089631971 0.0 0.0 0.0 34.33025523377368" Properties=species:S:1:pos:R:3:initial_magmoms:R:1 pbc="T T T"
Si      -0.88617600      -1.66342077      -1.50994846       0.00000000
Si       1.47911571       0.32224878       1.89036223       0.00000000
Si       1.68151896       0.91714329      -1.48759945       0.00000000
Si      -1.46631177      -1.28088270       1.57606857       0.00000000
Si       0.29294307       2.20309218      -2.87320366       0.00000000
Si      -2.15974449      -3.02681232       0.06035262       0.00000000
Si       0.01277136       1.15197993       3.59750379       0.00000000
Si      -2.43020736      -0.49994010      -2.85130094       0.00000000
Si      -2.67401979       2.69557146       0.03886187       0.00000000
Si       3.14036991      -1.43964504       1.62969246       0.00000000
