10
Lattice="16.28999089631971 0.0 0.0 0.0 16.28999089631971 0.0 0.0 0.0 34.33025523377368" Properties=species:S:1:pos:R:3:initial_magmoms:R:1 pbc="T T T"
Si       0.45675531       1.09375947      -1.98243603       0.00000000
Si       1.14067467      -2.04125103      -0.08956769       0.00000000
Si       1.30347693       1.12842459       1.64043783       0.00000000
Si      -2.16130833      -1.00657539       0.41127669       0.00000000
Si      -1.20449889       2.85565329      -1.72176625       0.00000000
Si       3.41896149      -1.28936979      -0.33152746       0.00000000
Si       0.53577810      -0.78099147      -3.55606715       0.00000000
Si       0.64122327      -3.06988308      -2.09531397       0.00000000
Si       3.46333545       0.05349636       1.59412629       0.00000000
Si       2.79642285       1.87668945      -1.78802368       0.00000000
