10
Lattice="16.28999089631971 0.0 0.0 0.0 16.28999089631971 0.0 0.0 0.0 34.33025523377368" Properties=species:S:1:pos:R:3:initial_magmoms:R:1 pbc="T T T"
Si      -1.08784620      -1.09965645      -1.74802891       0.00000000
Si      -0.46778364      -0.50880186       2.24248786       0.00000000
Si      -0.84250251       2.20004595      -0.04741011       0.00000000
Si       2.02810500      -1.22829858      -0.35779012       0.00000000
Si      -0.14941188      -2.78459631       2.35399259       0.00000000
Si       0.32189040       3.25655019       1.67315458       0.00000000
Si      -3.29519007      -1.30324887      -1.04964814       0.00000000
Si       1.72797804      -3.20360769       0.91301365       0.00000000
Si       1.42197039       0.11103264       3.47185498       0.00000000
Si       0.20134440      -2.96121249      -2.38969607       0.00000000
