10
Lattice="16.28999089631971 0.0 0.0 0.0 16.28999089631971 0.0 0.0 0.0 34.33025523377368" Properties=species:S:1:pos:R:3:initial_magmoms:R:1 pbc="T T T"
Si       0.94975587      -1.97333802      -0.85001759       0.00000000
Si       0.67176702      -0.15237666       2.25113908       0.00000000
Si       0.58792239       2.19330189      -0.65708145       0.00000000
Si      -2.33531811      -0.36766530      -0.00497789       0.00000000
Si      -2.35638108      -1.93139127       1.78459066       0.00000000
Si      -0.18767709      -2.28436299       2.69228311       0.00000000
Si       0.38581236       3.20448735       1.46549075       0.00000000
Si      -0.38814183       1.72688661       3.15872855       0.00000000
Si       3.06204759      -1.27576764      -1.87264781       0.00000000
Si      -0.35911305      -2.61905733      -2.74611298       0.00000000
