10
Lattice="16.28999089631971 0.0 0.0 0.0 16.28999089631971 0.0 0.0 0.0 34.33025523377368" Properties=species:S:1:pos:R:3:initial_magmoms:R:1 pbc="T T T"
Si      -0.94975587       1.97333802       0.85001759       0.00000000
Si      -1.30886892      -0.64571931      -1.89609539       0.00000000
Si       2.11229172       0.69757038      -1.02263021       0.00000000
Si      -0.30893985      -1.66659732       1.79293291       0.00000000
Si      -0.27798885       1.82096136       3.10115668       0.00000000
Si      -1.13743296      -0.31102497       3.54230071       0.00000000
Si      -3.28507398       1.60567272       0.84503970       0.00000000
Si       1.36018242       0.53729307      -3.53217327       0.00000000
Si       3.63675879      -1.05539652      -0.57547839       0.00000000
Si       0.15747543      -1.47545046      -3.60323694       0.00000000
