10
Lattice="16.28999089631971 0.0 0.0 0.0 16.28999089631971 0.0 0.0 0.0 34.33025523377368" Properties=species:S:1:pos:R:3:initial_magmoms:R:1 pbc="T T T"
Si      -1.36835023      -1.34052039       1.36280204       0.00000000
Si       1.36368477       1.35496962       1.35857941       0.00000000
Si      -1.14214240       1.49068161      -1.43103346       0.00000000
Si       0.76157379      -1.96006167      -1.14199315       0.00000000
Si      -1.25914695      -0.04639392      -3.35978865       0.00000000
Si       0.70437960      -1.48002795      -3.43706609       0.00000000
Si      -2.70450185       2.70940167      -0.01616956       0.00000000
Si       0.00063531      -2.70743058       2.71661641       0.00000000
Si       2.70759348      -2.72495862      -0.01014460       0.00000000
Si       2.71422351       0.00827532       2.72035841       0.00000000
