10
Lattice="16.28999089631971 0.0 0.0 0.0 16.28999089631971 0.0 0.0 0.0 34.33025523377368" Properties=species:S:1:pos:R:3:initial_magmoms:R:1 pbc="T T T"
Si       1.98208575       0.59888556       1.18087703       0.00000000
Si      -0.67719159      -1.89327267       1.30556115       0.00000000
Si      -1.76298525       1.60189344       0.33260169       0.00000000
Si      -0.02182860       0.53411652      -2.59718825       0.00000000
Si       0.52517331       1.87639623       2.75442575       0.00000000
Si      -2.21019462      -0.83246787       2.76436780       0.00000000
Si      -0.76510872       3.31628562       1.45587626       0.00000000
Si      -1.98355185      -3.12232059      -0.23265627       0.00000000
Si      -3.47768694       0.62275041       1.47594230       0.00000000
Si       2.76302835       2.65660578       0.08838230       0.00000000
