10
Lattice="16.28999089631971 0.0 0.0 0.0 16.28999089631971 0.0 0.0 0.0 34.33025523377368" Properties=species:S:1:pos:R:3:initial_magmoms:R:1 pbc="T T T"
Si       1.20963024      -1.43809749       1.41001303       0.00000000
Si       1.36085031       1.35348723      -1.36157301       0.00000000
Si      -1.35899325      -1.35922131      -1.36421644       0.00000000
Si      -1.27145079       1.40253937       1.46634901       0.00000000
Si       2.36771892       0.11767896       2.73402872       0.00000000
Si      -2.70225036       2.71224983       0.01743978       0.00000000
Si       2.70275535      -2.71272483       0.00628244       0.00000000
Si      -2.70565497      -2.71212210      -0.00223147       0.00000000
Si       2.70821250       2.72204338       0.02080415       0.00000000
Si       0.00174303       2.71273365      -2.72170416       0.00000000
