10
Lattice="16.28999089631971 0.0 0.0 0.0 16.28999089631971 0.0 0.0 0.0 34.33025523377368" Properties=species:S:1:pos:R:3:initial_magmoms:R:1 pbc="T T T"
Si       1.09950984      -0.83241900       1.89238772       0.00000000
Si      -1.15424424      -1.44296820      -1.48571129       0.00000000
Si       1.44200709       1.21828023      -1.48241558       0.00000000
Si      -1.66615749       1.07898444       1.84051467       0.00000000
Si      -1.45617939      -2.14739667       2.34836242       0.00000000
Si      -2.73624759      -2.27543607       0.01905330       0.00000000
Si      -2.36868003       2.65696416      -0.00168218       0.00000000
Si       2.25728901       1.13036310       2.55056774       0.00000000
Si       2.60009577       2.77405668      -0.15839989       0.00000000
Si      -2.47327812      -0.05574438      -2.89466008       0.00000000
