10
Lattice="16.28999089631971 0.0 0.0 0.0 16.28999089631971 0.0 0.0 0.0 34.33025523377368" Properties=species:S:1:pos:R:3:initial_magmoms:R:1 pbc="T T T"
Si       1.15808868       1.55577645       1.32401569       0.00000000
Si      -1.20963024       1.43809749      -1.41001303       0.00000000
Si      -1.44200709      -1.21828023       1.48241558       0.00000000
Si       1.49312511      -1.27462734      -1.40373059       0.00000000
Si      -2.59625133      -2.66124843      -0.00329571       0.00000000
Si      -2.48108103       2.84063686       0.05633598       0.00000000
Si      -2.56862349       0.07887618      -2.77422948       0.00000000
Si       0.14734305      -2.63529846      -2.77254729       0.00000000
Si       2.89968516      -2.51970462       0.01592925       0.00000000
Si       2.75343354       2.69226459      -0.02351624       0.00000000
