10
Lattice="16.28999089631971 0.0 0.0 0.0 16.28999089631971 0.0 0.0 0.0 34.33025523377368" Properties=species:S:1:pos:R:3:initial_magmoms:R:1 pbc="T T T"
Si      -2.29837239      -0.40654953      -0.15695801       0.00000000
Si       1.05990885      -1.87926327      -0.90758946       0.00000000
Si       0.08939952       0.01790271       2.35773459       0.00000000
Si       0.77395419       1.47760074      -1.69323779       0.00000000
Si      -1.88167419      -1.38219021       2.51699273       0.00000000
Si       3.04960203       1.21394709      -1.01978080       0.00000000
Si       3.29714487      -1.19516472      -0.64252542       0.00000000
Si       0.38814183      -1.72688661      -3.15872855       0.00000000
Si      -1.11868317       2.98317141      -1.75650849       0.00000000
Si       2.33085465      -0.29761830       2.95597395       0.00000000
