10
Lattice="16.28999089631971 0.0 0.0 0.0 16.28999089631971 0.0 0.0 0.0 34.33025523377368" Properties=species:S:1:pos:R:3:initial_magmoms:R:1 pbc="T T T"
Si      -2.20279896      -0.15747543       0.92636812       0.00000000
Si       0.02399517       1.11694014      -2.17712301       0.00000000
Si       1.18107387       0.95206905       2.08995845       0.00000000
Si       0.40643550      -2.56486050      -0.32943331       0.00000000
Si      -1.33472115      -1.49708358       2.60035663       0.00000000
Si      -0.34992549       3.33737207      -1.36164167       0.00000000
Si      -3.32962713      -1.38300471      -0.76776226       0.00000000
Si       3.32118891      -0.54884268      -1.56079160       0.00000000
Si      -0.33684462       0.21730860       3.72363119       0.00000000
Si       2.28810969       1.08879102      -2.85675946       0.00000000
