10
Lattice="16.28999089631971 0.0 0.0 0.0 16.28999089631971 0.0 0.0 0.0 34.33025523377368" Properties=species:S:1:pos:R:3:initial_magmoms:R:1 pbc="T T T"
Si       1.35580041       1.35868374       1.35817432       0.00000000
Si       1.35428544      -1.35884664      -1.36047444       0.00000000
Si      -1.35980775      -1.35774869       1.35724740       0.00000000
Si      -1.35930276       1.35798327      -1.36325520       0.00000000
Si      -0.00773775      -2.69850285      -2.72512002       0.00000000
Si       2.71205996      -2.71416022      -0.00020598       0.00000000
Si       2.71290671      -0.00001629       2.71566203       0.00000000
Si      -0.00166158       2.71420722       2.71483810       0.00000000
Si       2.71366123       2.71578735       0.00367334       0.00000000
Si      -0.00197109      -2.71552401       2.71487243       0.00000000
