10
Lattice="16.28999089631971 0.0 0.0 0.0 16.28999089631971 0.0 0.0 0.0 34.33025523377368" Properties=species:S:1:pos:R:3:initial_magmoms:R:1 pbc="T T T"
Si      -0.49945140      -1.02863205      -2.00574628       0.00000000
Si      -1.14067467       2.04125103       0.08956769       0.00000000
Si      -0.51056118      -1.20006312       2.01336760       0.00000000
Si       2.27828682       0.75188124      -0.24195977       0.00000000
Si      -2.88430740      -1.06380216       1.64150207       0.00000000
Si      -3.30198300       1.03467564       0.50084437       0.00000000
Si       2.32266078       2.09474739       1.68369398       0.00000000
Si       1.24038576      -2.76437132      -1.96901289       0.00000000
Si       0.16280226       3.16967562       1.73000552       0.00000000
Si      -0.68391936       3.13501050      -1.89286834       0.00000000
