10
Lattice="16.28999089631971 0.0 0.0 0.0 16.28999089631971 0.0 0.0 0.0 34.33025523377368" Properties=species:S:1:pos:R:3:initial_magmoms:R:1 pbc="T T T"
Si      -0.06770124       1.18765503      -1.98449584       0.00000000
Si       0.16941600       1.79760150       1.47359270       0.00000000
Si       2.18662855      -0.83843001       0.15798792       0.00000000
Si      -1.99018188      -1.24180299       0.43005535       0.00000000
Si       2.00228765       2.41341237      -1.62358167       0.00000000
Si      -2.22755976       2.26258326      -1.93818430       0.00000000
Si       2.34506020      -2.10449533       2.11742267       0.00000000
Si      -3.66495678       0.20781153       1.26098531       0.00000000
Si      -1.47808944      -3.12166410       1.79725853       0.00000000
Si       2.92282415      -1.75726746      -1.91586962       0.00000000
