10
Lattice="16.28999089631971 0.0 0.0 0.0 16.28999089631971 0.0 0.0 0.0 34.33025523377368" Properties=species:S:1:pos:R:3:initial_magmoms:R:1 pbc="T T T"
Si       1.35653760      -1.35501849      -1.36019980       0.00000000
Si      -1.36000791       1.35948195      -1.35954753       0.00000000
Si      -1.34581932      -1.37088495       1.37101384       0.00000000
Si       1.35285117       1.35764118       1.37832619       0.00000000
Si      -2.69793819      -0.00535941       2.71099311       0.00000000
Si       2.70935531      -2.71223613      -0.00147620       0.00000000
Si       2.71188026       0.00195480      -2.71624564       0.00000000
Si      -0.00295047      -2.71308321      -2.71597100       0.00000000
Si       2.71450295       2.71591767      -0.00017165       0.00000000
Si      -2.71800747      -2.71402803       0.00209415       0.00000000
