10
Lattice="16.28999089631971 0.0 0.0 0.0 16.28999089631971 0.0 0.0 0.0 34.33025523377368" Properties=species:S:1:pos:R:3:initial_magmoms:R:1 pbc="T T T"
Si      -1.30347693      -1.12842459      -1.64043783       0.00000000
Si       0.97130754       2.14728264      -0.33444553       0.00000000
Si      -1.11726594       0.05390361       2.12109600       0.00000000
Si       2.15985852      -1.07492823      -0.04631154       0.00000000
Si       0.58578840       1.10542311       3.35248862       0.00000000
Si      -0.16280226      -3.16967562      -1.73000552       0.00000000
Si       1.68345747       2.63844243       1.91034245       0.00000000
Si       2.22755976      -2.26258326       1.93818430       0.00000000
Si      -0.84672162      -0.03466512      -3.62287386       0.00000000
Si       2.11548456      -2.41779438      -1.97196529       0.00000000
