10
Lattice="16.28999089631971 0.0 0.0 0.0 16.28999089631971 0.0 0.0 0.0 34.33025523377368" Properties=species:S:1:pos:R:3:initial_magmoms:R:1 pbc="T T T"
Si       1.35881406      -1.35604476      -1.36328953       0.00000000
Si      -1.35751086       1.35843939      -1.36239694       0.00000000
Si      -1.37034738      -1.36399428       1.35858628       0.00000000
Si       1.36951659       1.38717495       1.36586430       0.00000000
Si       2.71419880       2.71327869      -0.00600780       0.00000000
Si       0.02088378      -2.72088612       2.70725111       0.00000000
Si      -2.71360449      -2.71494027      -0.00786163       0.00000000
Si      -2.68540650       0.08105904       2.74364120       0.00000000
Si      -2.71534752       2.71790505      -0.00391365       0.00000000
Si       2.71882197      -2.71552671      -0.00374200       0.00000000
