10
Lattice="16.28999089631971 0.0 0.0 0.0 16.28999089631971 0.0 0.0 0.0 34.33025523377368" Properties=species:S:1:pos:R:3:initial_magmoms:R:1 pbc="T T T"
Si       1.91650777       1.06473069       1.00749056       0.00000000
Si      -1.03703769       0.26738406      -2.23198279       0.00000000
Si      -0.92290995      -1.91146860       1.35934155       0.00000000
Si       2.13891188      -1.64113605      -0.92015435       0.00000000
Si       0.37556595      -0.87430059       3.00377340       0.00000000
Si       0.35725599      -3.26941929      -0.13752708       0.00000000
Si       1.90351161       3.01031055      -0.41436641       0.00000000
Si       3.67638326      -0.26430525       0.20285759       0.00000000
Si       0.87555492       0.43118001      -3.60285931       0.00000000
Si      -1.83637170      -1.71784566      -3.07386411       0.00000000
