10
Lattice="16.28999089631971 0.0 0.0 0.0 16.28999089631971 0.0 0.0 0.0 34.33025523377368" Properties=species:S:1:pos:R:3:initial_magmoms:R:1 pbc="T T T"
Si      -1.80789678      -0.66282381      -1.29669463       0.00000000
Si      -1.36264221       1.30068305       1.36494768       0.00000000
Si       1.36330349      -1.43959617       1.33725001       0.00000000
Si      -0.44799129      -0.43091937      -3.23647430       0.00000000
Si      -2.58883938      -2.72054403      -0.20419991       0.00000000
Si      -0.00061902       2.64033926       2.72959325       0.00000000
Si      -2.92542336       2.49644969      -0.06955314       0.00000000
Si       2.71319465      -0.07542270       2.72784241       0.00000000
Si      -2.71428867      -0.07657929       2.73206503       0.00000000
Si       0.00039096      -2.78878284       2.73031419       0.00000000
