10
Lattice="16.28999089631971 0.0 0.0 0.0 16.28999089631971 0.0 0.0 0.0 34.33025523377368" Properties=species:S:1:pos:R:3:initial_magmoms:R:1 pbc="T T T"
Si      -0.22255398      -0.89205669       2.14117922       0.00000000
Si      -2.18855010       0.89370198      -0.26066977       0.00000000
Si       1.15497729       2.05092729       0.36942808       0.00000000
Si       0.39928419      -1.85697855      -1.57012943       0.00000000
Si      -2.00420920      -2.35814040       1.52089982       0.00000000
Si      -1.80036428       1.73319084      -2.42739071       0.00000000
Si      -1.26801360      -3.27697785      -0.55295773       0.00000000
Si       1.88429688      -2.02955481       2.46913633       0.00000000
Si      -0.42847587       3.56084739       1.44973316       0.00000000
Si      -2.58154472       2.23008471       1.84442832       0.00000000
