10
Lattice="16.28999089631971 0.0 0.0 0.0 16.28999089631971 0.0 0.0 0.0 34.33025523377368" Properties=species:S:1:pos:R:3:initial_magmoms:R:1 pbc="T T T"
Si       0.38818581       0.83948886      -2.16672094       0.00000000
Si       2.18855010      -0.89370198       0.26066977       0.00000000
Si      -2.06998889      -1.22575734      -0.36091417       0.00000000
Si      -0.39299462       1.33638273       2.10509810       0.00000000
Si      -1.47734240       2.28395574      -2.18755942       0.00000000
Si      -2.00228765      -2.41341237       1.62358167       0.00000000
Si       1.96599612      -1.78575867       2.40184899       0.00000000
Si       3.34352739       1.15722531       0.63009786       0.00000000
Si       1.76007423       2.66714541       1.71040293       0.00000000
Si      -1.83287165      -0.61581087       3.09717437       0.00000000
