10
Lattice="16.28999089631971 0.0 0.0 0.0 16.28999089631971 0.0 0.0 0.0 34.33025523377368" Properties=species:S:1:pos:R:3:initial_magmoms:R:1 pbc="T T T"
Si      -1.23000903      -0.33837588      -1.97714916       0.00000000
Si      -1.35990549      -0.23190444       1.93977967       0.00000000
Si       2.06059608      -1.22054454      -0.28686377       0.00000000
Si       1.33468857       2.63657790      -0.65055870       0.00000000
Si       0.44799129       0.43091937       3.23647430       0.00000000
Si       0.74528379      -0.23131800      -3.21358833       0.00000000
Si       3.87582173       0.31967496      -0.22167058       0.00000000
Si       1.95699249       1.75190432      -2.88559689       0.00000000
Si      -3.37012407       1.16253585       1.67360088       0.00000000
Si       2.07359224      -3.16612440       1.13499320       0.00000000
