10
Lattice="16.28999089631971 0.0 0.0 0.0 16.28999089631971 0.0 0.0 0.0 34.33025523377368" Properties=species:S:1:pos:R:3:initial_magmoms:R:1 pbc="T T T"
Si       1.35890203      -1.35560493       1.35920422       0.00000000
Si      -1.35461920       1.35966114       1.36164167       0.00000000
Si      -1.34429662      -1.36866951      -1.37375340       0.00000000
Si       1.35145750       1.37642355      -1.37708343       0.00000000
Si       0.21806283      -2.58738957      -2.78861729       0.00000000
Si      -2.71358887       2.71567332       0.00168218       0.00000000
Si       2.71281280       2.71692765       0.00267776       0.00000000
Si      -2.71081957      -2.72015307       0.00466892       0.00000000
Si      -2.71262776       0.00029322       2.71885474       0.00000000
Si       0.00090247      -2.71479366       2.71912939       0.00000000
