10
Lattice="16.28999089631971 0.0 0.0 0.0 16.28999089631971 0.0 0.0 0.0 34.33025523377368" Properties=species:S:1:pos:R:3:initial_magmoms:R:1 pbc="T T T"
Si       1.51601256      -1.18151370      -1.35001401       0.00000000
Si       1.36135530       1.34050410       1.37976119       0.00000000
Si      -1.35145750      -1.37642355       1.37708343       0.00000000
Si      -1.20584119       1.44223515      -1.58881197       0.00000000
Si       0.21559815      -2.44442853      -2.76196125       0.00000000
Si      -2.70213384       2.68843644      -0.01429856       0.00000000
Si       2.71922454       2.71331127       0.01751531       0.00000000
Si       0.00964368       2.69853624       2.73807283       0.00000000
Si      -2.69575412      -2.74509306       0.00333004       0.00000000
Si      -2.70607670      -0.01676241       2.73872511       0.00000000
