10
Lattice="16.28999089631971 0.0 0.0 0.0 16.28999089631971 0.0 0.0 0.0 34.33025523377368" Properties=species:S:1:pos:R:3:initial_magmoms:R:1 pbc="T T T"
Si       1.61362061      -1.67977593       0.33547544       0.00000000
Si      -0.52846747       0.31454361      -2.30321811       0.00000000
Si      -1.92066498       0.24599529       1.39222995       0.00000000
Si       1.10853287       2.01898260       0.66274595       0.00000000
Si      -0.65497596       3.31918524      -0.12691902       0.00000000
Si       3.23028908      -1.08968697      -1.30262793       0.00000000
Si      -0.67848732       2.68257204      -2.50102915       0.00000000
Si      -2.20236795       2.59708212       1.54043374       0.00000000
Si      -1.42460190      -0.48601215       3.54937274       0.00000000
Si       2.34536741      -1.65188745       2.59241634       0.00000000
