10
Lattice="16.28999089631971 0.0 0.0 0.0 16.28999089631971 0.0 0.0 0.0 34.33025523377368" Properties=species:S:1:pos:R:3:initial_magmoms:R:1 pbc="T T T"
Si       1.30041441       1.26291483       1.41194724       0.00000000
Si       1.20241377      -1.05946902      -1.73412515       0.00000000
Si      -0.89555904       1.64638143      -1.49570140       0.00000000
Si      -1.34899282      -1.51938459       1.35042739       0.00000000
Si      -0.96194079      -1.71662391      -2.51077895       0.00000000
Si      -1.46599737      -3.05646012      -0.57832780       0.00000000
Si      -2.43303042       0.26955063      -2.61871333       0.00000000
Si      -0.21559815       2.44442853       2.76196125       0.00000000
Si       2.52394002      -0.28445598       2.75121931       0.00000000
Si       2.72401380       2.63373462      -0.03769464       0.00000000
