10
Lattice="16.28999089631971 0.0 0.0 0.0 16.28999089631971 0.0 0.0 0.0 34.33025523377368" Properties=species:S:1:pos:R:3:initial_magmoms:R:1 pbc="T T T"
Si      -1.35666073       1.35687555      -1.35752204       0.00000000
Si      -1.35708427      -1.35814617       1.35621749       0.00000000
Si       1.35760906      -1.35775521      -1.35765936       0.00000000
Si       1.35787133       1.35752715       1.35827731       0.00000000
Si       0.00167363      -2.71393029      -2.71459779       0.00000000
Si      -2.71456255       2.71452662       0.00006866       0.00000000
Si      -2.71265662       0.00143352       2.71645162       0.00000000
Si      -2.71438336      -2.71513575       0.00003433       0.00000000
Si       2.71548808       2.71503633       0.00034330       0.00000000
Si      -0.00053150       2.71589040      -2.71500975       0.00000000
