10
Lattice="16.28999089631971 0.0 0.0 0.0 16.28999089631971 0.0 0.0 0.0 34.35334932831803" Properties=species:S:1:pos:R:3:initial_magmoms:R:1 pbc="T T T"
Si      -1.46461077       1.13557916       1.50902324       0.00000000
Si      -1.84917142      -0.84172711      -1.27941018       0.00000000
Si       1.22541036      -1.56358329       1.46201066       0.00000000
Si       1.55860602       1.39019186      -1.57852496       0.00000000
Si      -2.74468159       2.48893607       0.14720762       0.00000000
Si       2.78395611       2.56119851       0.11784236       0.00000000
Si      -0.89643055      -0.43187234      -3.66154146       0.00000000
Si      -0.14097040       2.49369275       2.85788421       0.00000000
Si       2.57479251      -0.22015121       2.85221590       0.00000000
Si      -2.73963169      -2.79846303       0.03372127       0.00000000
