10
Lattice="16.28999089631971 0.0 0.0 0.0 16.28999089631971 0.0 0.0 0.0 34.35334932831803" Properties=species:S:1:pos:R:3:initial_magmoms:R:1 pbc="T T T"
Si       1.84329544       1.28209305       0.51128118       0.00000000
Si       0.81878802      -2.06005199      -0.84492110       0.00000000
Si      -1.50785797       1.39871316      -1.24881365       0.00000000
Si       0.96016730       0.25688027       2.59055317       0.00000000
Si      -0.66612109      -3.06732785       0.72080238       0.00000000
Si      -0.37322689      -1.81518071       2.77135495       0.00000000
Si       0.63112396      -1.31789588      -3.21650590       0.00000000
Si      -1.04621566       0.51987417      -3.41582414       0.00000000
Si      -3.56080522       1.02110770      -0.15575817       0.00000000
Si       2.90532199      -2.79227120       0.20907460       0.00000000
