10
Lattice="16.28999089631971 0.0 0.0 0.0 16.28999089631971 0.0 0.0 0.0 34.35334932831803" Properties=species:S:1:pos:R:3:initial_magmoms:R:1 pbc="T T T"
Si      -2.06653441       1.13301837      -0.21096404       0.00000000
Si      -0.24694011      -2.30734818      -0.54360770       0.00000000
Si       0.57347316       0.71726499       2.26436793       0.00000000
Si       1.14090273       0.87850341      -1.98016252       0.00000000
Si      -1.47676506       0.25365159       3.32392888       0.00000000
Si       0.76056381       3.25694115      -1.48873758       0.00000000
Si       1.80351477      -2.68684165      -1.76119414       0.00000000
Si      -1.42459960       3.40534305      -0.52031612       0.00000000
Si      -3.03209747       0.18293670      -2.16862509       0.00000000
Si      -3.13045649       1.05125886       1.90245520       0.00000000
