10
Lattice="16.28999089631971 0.0 0.0 0.0 16.28999089631971 0.0 0.0 0.0 34.35334932831803" Properties=species:S:1:pos:R:3:initial_magmoms:R:1 pbc="T T T"
Si       2.16438714       0.51931706      -0.73584915       0.00000000
Si      -0.74233530       2.22873427      -0.27276575       0.00000000
Si      -1.64476872      -0.76918678      -1.52415590       0.00000000
Si       0.02847492      -0.87406180       2.22572039       0.00000000
Si       0.96770745       3.23262181       1.04289956       0.00000000
Si       2.04530724      -0.27262781      -2.92883079       0.00000000
Si      -1.84005324       0.31878715       3.07885195       0.00000000
Si      -3.60362819       0.41820014      -0.88470230       0.00000000
Si       3.69848160      -0.38197607       0.78511188       0.00000000
Si      -0.34539687       2.85140323      -2.59381674       0.00000000
