10
Lattice="16.28999089631971 0.0 0.0 0.0 16.28999089631971 0.0 0.0 0.0 34.35334932831803" Properties=species:S:1:pos:R:3:initial_magmoms:R:1 pbc="T T T"
Si      -1.38592062      -1.24718195      -1.38093671       0.00000000
Si       1.84033017      -1.53791284       0.06716084       0.00000000
Si       0.94203441       1.53673344      -1.58904941       0.00000000
Si      -1.17889101       1.12707252       1.77761505       0.00000000
Si       2.38078350       2.33030079       0.34511394       0.00000000
Si       0.92206287      -3.16596869      -1.38495605       0.00000000
Si      -1.44844164       3.28318434       0.71747010       0.00000000
Si      -3.63392759      -0.69499167      -0.30540145       0.00000000
Si       1.94448843      -2.41244216       2.25811119       0.00000000
Si      -0.50666787       3.57868494      -1.51230399       0.00000000
