10
Lattice="16.28999089631971 0.0 0.0 0.0 16.28999089631971 0.0 0.0 0.0 34.35334932831803" Properties=species:S:1:pos:R:3:initial_magmoms:R:1 pbc="T T T"
Si       0.10415826      -0.87452932       2.19095036       0.00000000
Si      -0.91826730      -1.62805585      -1.45211689       0.00000000
Si      -1.84033017       1.53791284      -0.06716084       0.00000000
Si       2.41738713       0.36095871      -0.67459710       0.00000000
Si       0.62092593      -0.69309130      -3.21963205       0.00000000
Si      -3.22625079       0.29073089      -1.44809754       0.00000000
Si      -0.89829576       3.07464628      -1.65621025       0.00000000
Si       0.76966992       1.07689932       3.36388670       0.00000000
Si       1.95807429       2.58374713       1.80042569       0.00000000
Si       1.63134576      -2.80666993       2.18775721       0.00000000
