10
Lattice="16.28999089631971 0.0 0.0 0.0 16.28999089631971 0.0 0.0 0.0 34.35334932831803" Properties=species:S:1:pos:R:3:initial_magmoms:R:1 pbc="T T T"
Si      -1.29231828      -1.38308616      -1.34736114       0.00000000
Si       1.75700682       0.86239260      -1.26066282       0.00000000
Si       1.22122872      -1.47647673       1.38146231       0.00000000
Si      -1.49315769       1.24304103       1.36972033       0.00000000
Si       0.63053703       0.91429254      -3.40279188       0.00000000
Si      -3.27168360       0.14061528      -1.46392212       0.00000000
Si       3.37849713      -0.95174325      -1.22195275       0.00000000
Si       2.47305006      -2.82281265      -0.07760426       0.00000000
Si       2.58923034      -0.12162114       2.73613587       0.00000000
Si      -0.12505833       2.59537167       2.73668553       0.00000000
