10
Lattice="16.28999089631971 0.0 0.0 0.0 16.28999089631971 0.0 0.0 0.0 34.35334932831803" Properties=species:S:1:pos:R:3:initial_magmoms:R:1 pbc="T T T"
Si       1.35721764       1.35553977      -1.35620228       0.00000000
Si      -1.35874890       1.35281934       1.35795430       0.00000000
Si      -1.35793440      -1.35902583      -1.35575569       0.00000000
Si       1.35775521      -1.35951453       1.36606170       0.00000000
Si      -0.00063531       2.71314837      -2.71364129       0.00000000
Si      -2.71527096       2.71156824       0.00041224       0.00000000
Si       2.71461447      -0.00267156      -2.71343517       0.00000000
Si      -2.70179913      -0.00775404       2.72659251       0.00000000
Si      -2.71524489      -0.00211770      -2.71370999       0.00000000
Si       2.71539639       2.71378368       0.00051530       0.00000000
