10
Lattice="16.28999089631971 0.0 0.0 0.0 16.28999089631971 0.0 0.0 0.0 34.35334932831803" Properties=species:S:1:pos:R:3:initial_magmoms:R:1 pbc="T T T"
Si      -0.90730413      -0.64581705       2.09909388       0.00000000
Si       2.09215728      -1.11640257       0.15191060       0.00000000
Si      -0.06758721       2.37392541       0.23109511       0.00000000
Si      -0.91841391      -0.55770444      -2.14502433       0.00000000
Si      -2.77868304      -1.64817333       1.10738083       0.00000000
Si       1.07349471      -0.17757729      -3.35876319       0.00000000
Si      -1.77013656       2.64604986       1.85339859       0.00000000
Si       2.05403868       3.06861246       0.99264058       0.00000000
Si       0.46211472      -2.30285214       3.07026361       0.00000000
Si       2.04999876      -3.14861265      -0.99824018       0.00000000
