10
Lattice="16.28999089631971 0.0 0.0 0.0 16.28999089631971 0.0 0.0 0.0 34.35334932831803" Properties=species:S:1:pos:R:3:initial_magmoms:R:1 pbc="T T T"
Si      -1.35830907      -1.34943102       1.37280527       0.00000000
Si       1.35397593       1.36726857       1.37136242       0.00000000
Si      -1.57959243       1.11547404      -1.37255792       0.00000000
Si       1.44275643      -1.25143038      -1.46046819       0.00000000
Si       2.71696023      -2.69122203       0.01137440       0.00000000
Si      -2.72640843      -2.70176166       0.00584007       0.00000000
Si      -2.72497491       2.70759348       0.00862613       0.00000000
Si       2.72306898       2.71754667       0.01487844       0.00000000
Si      -0.00441459      -2.70876636       2.73199629       0.00000000
Si       2.71355562       0.00663003       2.73199629       0.00000000
