10
Lattice="16.28999089631971 0.0 0.0 0.0 16.28999089631971 0.0 0.0 0.0 34.35334932831803" Properties=species:S:1:pos:R:3:initial_magmoms:R:1 pbc="T T T"
Si       1.35720135       1.35677781      -1.35726724       0.00000000
Si      -1.35817875      -1.35824391      -1.35671758       0.00000000
Si      -1.35910728       1.35614250       1.35826348       0.00000000
Si       1.35817875      -1.35811359       1.36204236       0.00000000
Si      -0.00073305       2.71435383      -2.71432835       0.00000000
Si       2.71349046       2.71523349      -0.00030918       0.00000000
Si       2.71306692      -2.71581993      -0.00051530       0.00000000
Si       2.71451673      -0.00061902      -2.71439706       0.00000000
Si      -2.71539639      -2.71378368      -0.00051530       0.00000000
Si      -2.71603170      -0.00063531      -2.71415659       0.00000000
