10
Lattice="16.28999089631971 0.0 0.0 0.0 16.28999089631971 0.0 0.0 0.0 34.35334932831803" Properties=species:S:1:pos:R:3:initial_magmoms:R:1 pbc="T T T"
Si      -1.35791811       1.35760860      -1.35761077       0.00000000
Si       1.35910728      -1.35614250      -1.35826348       0.00000000
Si      -1.35123921      -1.36089918       1.36468756       0.00000000
Si       1.35822762       1.36612827       1.39790727       0.00000000
Si      -2.57028507       0.03210759       2.83391243       0.00000000
Si      -2.71393029       0.00047241      -2.71532460       0.00000000
Si       0.00092853      -2.71438641      -2.71498107       0.00000000
Si       0.00078192       2.71573848      -2.71501542       0.00000000
Si      -2.71399545       2.71730232       0.00140849       0.00000000
Si       2.71728603      -2.71425609       0.00377887       0.00000000
