10
Lattice="16.28999089631971 0.0 0.0 0.0 16.28999089631971 0.0 0.0 0.0 34.35334932831803" Properties=species:S:1:pos:R:3:initial_magmoms:R:1 pbc="T T T"
Si      -0.59836428      -2.15511813      -0.86886540       0.00000000
Si       1.09095759       0.28329939       2.11984331       0.00000000
Si      -0.37900314       1.79839971      -1.60835601       0.00000000
Si      -2.15529732       0.47791602       1.17859537       0.00000000
Si       2.42585793      -0.89767674      -1.06337417       0.00000000
Si       1.56884103       2.55459780       1.75064766       0.00000000
Si      -3.65037723      -0.23221395      -0.44027277       0.00000000
Si       0.99895167      -3.58505433       0.12295071       0.00000000
Si      -2.64233574       1.19571858      -2.33949875       0.00000000
Si       3.23814249       1.16382276      -1.78568810       0.00000000
