10
Lattice="16.28999089631971 0.0 0.0 0.0 16.28999089631971 0.0 0.0 0.0 34.35334932831803" Properties=species:S:1:pos:R:3:initial_magmoms:R:1 pbc="T T T"
Si       1.59731595      -1.42993620       0.99181610       0.00000000
Si      -2.31467868      -0.35908047       0.31989857       0.00000000
Si       0.59836428       2.15511813       0.86886540       0.00000000
Si       0.41332617      -0.52676973      -2.35674414       0.00000000
Si       3.02422221       1.25744139      -0.19450877       0.00000000
Si      -3.05201295       1.92290418       0.42859263       0.00000000
Si       2.78197362      -0.66570714      -2.29789682       0.00000000
Si      -1.55693304       2.63303415       2.04746076       0.00000000
Si       3.38643036      -2.02134465      -0.45954501       0.00000000
Si      -3.37991436      -1.30626252      -1.64985488       0.00000000
