10
Lattice="16.28999089631971 0.0 0.0 0.0 16.28999089631971 0.0 0.0 0.0 34.35334932831803" Properties=species:S:1:pos:R:3:initial_magmoms:R:1 pbc="T T T"
Si       1.20607902      -1.45202544       1.44448013       0.00000000
Si       1.96159293       0.70618779      -1.14271911       0.00000000
Si      -1.35267273      -1.46390085      -1.31290128       0.00000000
Si      -1.49498217       1.29192732       1.41732036       0.00000000
Si       2.62710459       2.65761643       0.03021722       0.00000000
Si       2.57289147      -0.07928343       2.80646065       0.00000000
Si       2.35146150      -3.04414488       0.06329608       0.00000000
Si      -0.14560002       2.63535940       2.80752561       0.00000000
Si       3.48878043      -1.22595282      -1.14591226       0.00000000
Si      -2.81816023      -2.72842839       0.08847367       0.00000000
