10
Lattice="16.28999089631971 0.0 0.0 0.0 16.28999089631971 0.0 0.0 0.0 34.35334932831803" Properties=species:S:1:pos:R:3:initial_magmoms:R:1 pbc="T T T"
Si      -1.25775090       1.46908826      -1.30948170       0.00000000
Si       1.45709163      -1.27946547      -1.32792946       0.00000000
Si       1.91399355       0.90061613       1.07096626       0.00000000
Si      -0.01068624       0.16632874       2.64531244       0.00000000
Si      -2.03543550      -0.59559498       1.59087014       0.00000000
Si      -2.66162310      -2.59556715       0.23830932       0.00000000
Si      -2.61118926       0.10318058      -2.68248278       0.00000000
Si       0.10557549      -2.61351873      -2.68612424       0.00000000
Si       3.45344742      -0.89534727       1.42693587       0.00000000
Si      -2.63173095       2.80288088       0.16314415       0.00000000
