10
Lattice="16.28999089631971 0.0 0.0 0.0 16.28999089631971 0.0 0.0 0.0 34.35334932831803" Properties=species:S:1:pos:R:3:initial_magmoms:R:1 pbc="T T T"
Si      -0.56876535       2.28125716       0.15661701       0.00000000
Si      -1.55719368      -1.41361362       1.07199686       0.00000000
Si       1.57485204      -0.48332430       1.74738409       0.00000000
Si       1.51454646       0.28017171      -2.24293143       0.00000000
Si      -0.49516713      -0.44838225       2.94837785       0.00000000
Si      -0.21496284       2.11315902      -2.30335901       0.00000000
Si       2.81768130       1.48412718       1.20288320       0.00000000
Si      -0.27577341      -3.40785171       0.60829510       0.00000000
Si       1.14686487       3.04609058       1.72175648       0.00000000
Si       1.98755919      -2.80517058       1.33943784       0.00000000
