10
Lattice="16.28999089631971 0.0 0.0 0.0 16.28999089631971 0.0 0.0 0.0 34.35334932831803" Properties=species:S:1:pos:R:3:initial_magmoms:R:1 pbc="T T T"
Si       0.16804764       0.99675252      -2.15962451       0.00000000
Si       0.33122457      -2.31102972      -0.48551616       0.00000000
Si       2.04239133       0.94910427       0.87271297       0.00000000
Si      -2.31557463      -0.26277399       0.71970307       0.00000000
Si      -1.90720062       0.06672384      -2.76005269       0.00000000
Si       2.21144895      -0.08312787      -2.73926890       0.00000000
Si      -2.22053877       0.49606308       2.90986773       0.00000000
Si       3.43583793       0.95449626      -1.03867410       0.00000000
Si      -3.52957059       0.60362595      -1.11648448       0.00000000
Si       1.73356551      -2.35442628      -2.37007325       0.00000000
