10
Lattice="16.28999089631971 0.0 0.0 0.0 16.28999089631971 0.0 0.0 0.0 34.35334932831803" Properties=species:S:1:pos:R:3:initial_magmoms:R:1 pbc="T T T"
Si      -1.91399355      -0.90061613      -1.07096626       0.00000000
Si       0.92813904       1.99668159      -0.92716306       0.00000000
Si       1.53945387      -1.79596340       0.35596960       0.00000000
Si      -1.92467979      -0.73428739       1.57434617       0.00000000
Si      -0.36377199      -2.36738402       2.21005526       0.00000000
Si      -0.45690192      -2.18008160      -2.39889572       0.00000000
Si       2.26890378       0.57221883      -2.37715004       0.00000000
Si       3.50251290      -0.94067324      -1.00012962       0.00000000
Si       0.81671544      -3.63976334      -1.02860856       0.00000000
Si       0.90526788      -0.79452574      -3.75283068       0.00000000
