10
Lattice="16.28999089631971 0.0 0.0 0.0 16.28999089631971 0.0 0.0 0.0 34.35334932831803" Properties=species:S:1:pos:R:3:initial_magmoms:R:1 pbc="T T T"
Si      -0.68245326      -2.21717651      -0.27310928       0.00000000
Si      -1.75941774       1.34473950      -0.80218551       0.00000000
Si       2.24502264      -0.25132212      -0.74584598       0.00000000
Si       0.49972833       1.02211605       2.10249486       0.00000000
Si       2.87272521      -1.96702402       0.85835327       0.00000000
Si       3.11057550       1.91801718      -0.54000060       0.00000000
Si       1.04873391      -3.51592676       0.67971575       0.00000000
Si       2.39480919       2.45070018       1.62793743       0.00000000
Si      -1.71725922       3.37694958       0.34796527       0.00000000
Si      -1.18382688       2.66269824       2.49776472       0.00000000
