10
Lattice="16.28999089631971 0.0 0.0 0.0 16.28999089631971 0.0 0.0 0.0 34.35334932831803" Properties=species:S:1:pos:R:3:initial_magmoms:R:1 pbc="T T T"
Si      -1.34661285      -1.35619137       1.35738747       0.00000000
Si       1.25182134      -1.34633592      -1.45906657       0.00000000
Si       1.36800162       1.35485559       1.35467356       0.00000000
Si      -1.22122872       1.47647673      -1.38146231       0.00000000
Si       2.15726841       0.52473348      -2.60341507       0.00000000
Si       0.53577810       2.33886933      -2.64212513       0.00000000
Si      -2.51354700       0.09339057      -2.72882345       0.00000000
Si      -2.70591561      -0.00135207       2.71568531       0.00000000
Si       0.00760743       2.71251306       2.71441424       0.00000000
Si       0.01016496      -2.71433754       2.71458600       0.00000000
