10
Lattice="16.28999089631971 0.0 0.0 0.0 16.28999089631971 0.0 0.0 0.0 34.35334932831803" Properties=species:S:1:pos:R:3:initial_magmoms:R:1 pbc="T T T"
Si      -1.32364037      -1.35811359      -1.34886097       0.00000000
Si      -1.35294870       1.35980775       1.35431285       0.00000000
Si       1.36054894      -1.35369900       1.35517168       0.00000000
Si       1.37211485       1.35290079      -1.37178154       0.00000000
Si      -2.60371119      -0.00475668      -2.71067659       0.00000000
Si       0.14097040      -2.49369275      -2.85788421       0.00000000
Si      -2.71236549       0.00221544       2.71185491       0.00000000
Si       0.00204928      -2.71249351       2.71188926       0.00000000
Si      -2.71225146      -2.71469429      -0.00618361       0.00000000
Si      -2.71288677       2.71603170      -0.00663020       0.00000000
