10
Lattice="16.28999089631971 0.0 0.0 0.0 16.28999089631971 0.0 0.0 0.0 34.35334932831803" Properties=species:S:1:pos:R:3:initial_magmoms:R:1 pbc="T T T"
Si      -1.52060634      -1.32092352       1.32892571       0.00000000
Si       1.28023110      -1.38192957      -1.52085798       0.00000000
Si      -1.43013168       1.33734384      -1.49670756       0.00000000
Si       1.70131131       1.11562065       1.43638304       0.00000000
Si       2.66908392      -2.66175342      -0.07423763       0.00000000
Si       2.70396081       2.80202661       0.00096189       0.00000000
Si       3.54698460      -0.70929918       1.50794111       0.00000000
Si       2.64510504      -0.02612916      -2.89859982       0.00000000
Si      -2.80477962      -2.75617026      -0.05489668       0.00000000
Si      -0.06791301       2.68866450      -2.89732875       0.00000000
