10
Lattice="16.28999089631971 0.0 0.0 0.0 16.28999089631971 0.0 0.0 0.0 34.35334932831803" Properties=species:S:1:pos:R:3:initial_magmoms:R:1 pbc="T T T"
Si      -0.25435206      -0.87317658       2.11262910       0.00000000
Si       2.19952467       0.30960774      -0.62595273       0.00000000
Si      -0.73464642      -1.66451220      -1.47523670       0.00000000
Si      -1.23085611       2.09785878      -0.24789391       0.00000000
Si      -2.62884762      -0.36372312      -2.00998124       0.00000000
Si       1.67394411       1.80030564      -2.37821500       0.00000000
Si      -0.21219354       1.15903350       3.26277988       0.00000000
Si      -3.45719412      -0.49345668       0.20110462       0.00000000
Si       0.61854759      -1.19451312      -3.25096232       0.00000000
Si      -2.43572967      -1.75208724       1.91526900       0.00000000
