10
Lattice="16.28999089631971 0.0 0.0 0.0 16.28999089631971 0.0 0.0 0.0 34.35334932831803" Properties=species:S:1:pos:R:3:initial_magmoms:R:1 pbc="T T T"
Si       1.03404033      -0.52724214       1.98655224       0.00000000
Si       1.57113792       0.05822046      -1.74326169       0.00000000
Si      -1.09693602      -1.87877457      -0.93819049       0.00000000
Si      -1.24046721       2.02660632      -0.01717668       0.00000000
Si      -0.52760052      -2.10610152       2.83284748       0.00000000
Si      -1.63036836      -1.16452323      -3.08798994       0.00000000
Si       0.29753685       0.01324377      -3.68972355       0.00000000
Si       2.48170005      -2.09077263      -1.80801779       0.00000000
Si       0.58661919      -3.51935676      -1.33346035       0.00000000
Si       3.53812284      -0.62770257       1.42113015       0.00000000
