10
Lattice="16.28999089631971 0.0 0.0 0.0 16.28999089631971 0.0 0.0 0.0 34.35334932831803" Properties=species:S:1:pos:R:3:initial_magmoms:R:1 pbc="T T T"
Si       1.56164085       1.57885938      -0.84629523       0.00000000
Si      -0.31320783       0.42974649       2.34748732       0.00000000
Si       1.07082315      -2.15818065      -0.32354002       0.00000000
Si      -2.45052099       0.10795383      -0.67741407       0.00000000
Si       0.52760052       2.10610152      -2.83284748       0.00000000
Si       3.24037422      -1.68305022       0.48218388       0.00000000
Si      -1.93469814       2.24388234       2.30877726       0.00000000
Si      -0.69168969      -3.62965635       0.84914656       0.00000000
Si      -0.56933550       0.22732695      -3.77103797       0.00000000
Si      -3.06116793       2.29578228       0.16664819       0.00000000
