10
Lattice="16.28999089631971 0.0 0.0 0.0 16.28999089631971 0.0 0.0 0.0 34.35334932831803" Properties=species:S:1:pos:R:3:initial_magmoms:R:1 pbc="T T T"
Si       1.35834165       1.35553977      -1.35733594       0.00000000
Si      -1.35731538       1.35739683       1.35712982       0.00000000
Si       1.35731538      -1.35791811       1.35757642       0.00000000
Si      -1.35962856      -1.35985662      -1.35733594       0.00000000
Si       2.71448415      -0.00120546      -2.71264504       0.00000000
Si      -2.71451673       0.00061902       2.71439706       0.00000000
Si      -0.00144981      -2.71520091       2.71388176       0.00000000
Si       2.71461447       2.71503801      -0.00010306       0.00000000
Si       2.71476108      -2.71507059      -0.00003435       0.00000000
Si      -0.00102627       2.71585251       2.71408788       0.00000000
