10
Lattice="16.28999089631971 0.0 0.0 0.0 16.28999089631971 0.0 0.0 0.0 34.35334932831803" Properties=species:S:1:pos:R:3:initial_magmoms:R:1 pbc="T T T"
Si      -1.33706691      -1.35244467      -1.38742949       0.00000000
Si       1.37430585       1.36500426      -1.38732643       0.00000000
Si       1.43480691      -1.23908256       1.51086115       0.00000000
Si      -1.51537725       1.23865902       1.53023645       0.00000000
Si       0.31196979       2.18553156       2.73579921       0.00000000
Si      -2.69928558      -2.70376533       0.01319169       0.00000000
Si      -2.69612532       2.72793969       0.00669891       0.00000000
Si       2.73924495      -2.69175960      -0.00422546       0.00000000
Si      -2.69524566       0.00566892      -2.74947185       0.00000000
Si       0.01782126      -2.71015101      -2.74998715       0.00000000
