10
Lattice="16.28999089631971 0.0 0.0 0.0 16.28999089631971 0.0 0.0 0.0 34.35334932831803" Properties=species:S:1:pos:R:3:initial_magmoms:R:1 pbc="T T T"
Si      -1.65149649       1.52686170      -0.57947262       0.00000000
Si       1.23510780      -0.11813508      -1.98490328       0.00000000
Si      -1.11575097      -2.05886052      -0.33745314       0.00000000
Si       1.12304889       0.34420770       2.07370674       0.00000000
Si       1.83081681      -1.81991880       2.57148705       0.00000000
Si      -3.05383743       1.57025826       1.30508447       0.00000000
Si      -0.31659615       0.34588557      -3.76269010       0.00000000
Si       2.94734970       1.73237634       1.70007950       0.00000000
Si       1.78904925      -2.35641366      -2.46777423       0.00000000
Si      -1.74350241      -2.34149202      -2.57636523       0.00000000
