10
Lattice="16.28999089631971 0.0 0.0 0.0 16.28999089631971 0.0 0.0 0.0 34.35334932831803" Properties=species:S:1:pos:R:3:initial_magmoms:R:1 pbc="T T T"
Si      -1.35542152      -1.35716877      -1.35785124       0.00000000
Si      -1.35726508       1.35721764       1.35719853       0.00000000
Si       1.35731049      -1.35690813       1.35795430       0.00000000
Si       1.35942819       1.36006839      -1.35898491       0.00000000
Si      -0.00002606       2.71368594       2.71412223       0.00000000
Si       2.71524489       0.00211770       2.71370999       0.00000000
Si      -2.71521298       0.00109143       2.71384741       0.00000000
Si      -0.00247282      -2.71697652      -2.71216409       0.00000000
Si      -2.71483831      -2.71476108      -0.00030918       0.00000000
Si       2.71511457      -2.71454931       0.00034353       0.00000000
