10
Lattice="16.28999089631971 0.0 0.0 0.0 16.28999089631971 0.0 0.0 0.0 34.35334932831803" Properties=species:S:1:pos:R:3:initial_magmoms:R:1 pbc="T T T"
Si      -1.35013149      -1.36267479      -1.39550254       0.00000000
Si       1.36741518       1.35185823      -1.38973117       0.00000000
Si       1.34636850      -1.37779191       1.44919685       0.00000000
Si      -1.41356475       1.44994032       1.59176333       0.00000000
Si      -2.69213916       2.70361872      -0.02920036       0.00000000
Si      -2.69159181      -2.71819501      -0.01140532       0.00000000
Si       2.72034855      -2.71158453      -0.02342900       0.00000000
Si       2.72101644       2.71572219       0.00738597       0.00000000
Si      -2.70501314      -0.00594585      -2.75455615       0.00000000
Si       0.00965997       2.71137276      -2.75579287       0.00000000
