10
Lattice="16.28999089631971 0.0 0.0 0.0 16.28999089631971 0.0 0.0 0.0 34.35334932831803" Properties=species:S:1:pos:R:3:initial_magmoms:R:1 pbc="T T T"
Si      -0.98054397       1.97522670       0.65316060       0.00000000
Si       2.26957167       0.37185183       0.11834735       0.00000000
Si      -0.22786452      -1.88832051       1.32226115       0.00000000
Si      -0.67349376      -0.53136351      -2.21379977       0.00000000
Si      -2.95601598       1.54376487      -0.45813652       0.00000000
Si      -0.16899246      -3.38010984      -0.49891397       0.00000000
Si       2.49297273       2.45940297      -0.95385563       0.00000000
Si       3.18816477      -1.39510818      -1.04547606       0.00000000
Si      -1.66506606      -2.63832840      -2.10689209       0.00000000
Si      -2.23440156       1.10173312      -2.84950886       0.00000000
