10
Lattice="16.28999089631971 0.0 0.0 0.0 16.28999089631971 0.0 0.0 0.0 34.35334932831803" Properties=species:S:1:pos:R:3:initial_magmoms:R:1 pbc="T T T"
Si       1.28007083      -1.35335691       1.36181562       0.00000000
Si      -0.97396281      -1.69577271      -1.26492882       0.00000000
Si      -1.46785932       1.35539316       1.32952346       0.00000000
Si       1.36718616       1.48582719      -1.29972741       0.00000000
Si      -1.19503440      -0.22341735      -3.11779977       0.00000000
Si      -0.39561894       2.19514266      -2.73180533       0.00000000
Si       2.74468159      -2.48893607      -0.14720762       0.00000000
Si       0.89551017      -3.33066317      -1.42661780       0.00000000
Si       2.60371119       0.00475668       2.71067659       0.00000000
Si      -0.10854027      -2.70993761       2.70449298       0.00000000
