10
Lattice="16.28999089631971 0.0 0.0 0.0 16.28999089631971 0.0 0.0 0.0 34.35334932831803" Properties=species:S:1:pos:R:3:initial_magmoms:R:1 pbc="T T T"
Si       1.35563751       1.35848091       1.35692370       0.00000000
Si       1.35698958      -1.35739834      -1.35747336       0.00000000
Si      -1.35767376       1.35702132      -1.35719853       0.00000000
Si      -1.35816246      -1.35938572       1.35754206       0.00000000
Si       0.00298107      -2.71492549       2.71374435       0.00000000
Si      -2.71520091       0.00126783      -2.71388176       0.00000000
Si       2.71416343      -2.71494178       0.00006871       0.00000000
Si       2.71457534       2.71492966       0.00024047       0.00000000
Si       0.00231318       2.71370791       2.71645826       0.00000000
Si      -0.00076563      -2.71530016      -2.71515283       0.00000000
