10
Lattice="16.28999089631971 0.0 0.0 0.0 16.28999089631971 0.0 0.0 0.0 34.35334932831803" Properties=species:S:1:pos:R:3:initial_magmoms:R:1 pbc="T T T"
Si       1.05101974       1.81430852      -1.12613777       0.00000000
Si      -0.46164231       0.87883898       2.16701049       0.00000000
Si      -1.81477116      -1.06282217      -1.21006305       0.00000000
Si       1.67733962      -1.83777005       0.19931824       0.00000000
Si      -0.34881777      -2.30032460      -2.59474428       0.00000000
Si       2.38902202       0.43971271      -2.57835772       0.00000000
Si       1.04621566      -0.51987417       3.41582414       0.00000000
Si       0.95865021      -3.68251481      -1.12383610       0.00000000
Si       3.68443052      -1.01266526      -1.09405173       0.00000000
Si       0.10435374       3.25250375       2.30208793       0.00000000
