10
Lattice="16.28999089631971 0.0 0.0 0.0 16.28999089631971 0.0 0.0 0.0 34.35334932831803" Properties=species:S:1:pos:R:3:initial_magmoms:R:1 pbc="T T T"
Si      -2.12406939       0.71397441       0.37919248       0.00000000
Si       0.29993148      -1.97788619      -1.22023165       0.00000000
Si       0.81319680       0.45354618       2.17360633       0.00000000
Si       0.63004833       1.60381566      -1.74649090       0.00000000
Si       2.35287873      -1.60028073      -2.31328713       0.00000000
Si       2.91887478       0.77338404      -2.17820968       0.00000000
Si       2.82051576       1.64170620       1.89287061       0.00000000
Si      -0.54309231       2.21809527       3.00420208       0.00000000
Si       0.97655292       3.73484088       0.23528622       0.00000000
Si      -3.17358522      -2.46206245       0.38678458       0.00000000
