10
Lattice="16.28999089631971 0.0 0.0 0.0 16.28999089631971 0.0 0.0 0.0 34.35334932831803" Properties=species:S:1:pos:R:3:initial_magmoms:R:1 pbc="T T T"
Si      -0.29993148       1.97788619       1.22023165       0.00000000
Si       2.05294725       0.37760546      -1.09305548       0.00000000
Si      -0.22340106      -2.08755114       1.07220299       0.00000000
Si      -2.49297273      -2.45940297       0.95385563       0.00000000
Si       0.33011685       3.58170185      -0.52625925       0.00000000
Si       3.56080522      -1.02110770       0.15575817       0.00000000
Si      -3.47351670      -0.48417627       1.60701623       0.00000000
Si       2.61894330       2.75127023      -0.95797803       0.00000000
Si       0.69519204      -3.85451115      -0.09162043       0.00000000
Si      -2.42400087       2.69186060       1.59942413       0.00000000
