10
Lattice="16.28999089631971 0.0 0.0 0.0 16.28999089631971 0.0 0.0 0.0 34.35334932831803" Properties=species:S:1:pos:R:3:initial_magmoms:R:1 pbc="T T T"
Si      -1.14930837      -2.02220835      -0.03301359       0.00000000
Si      -0.46863072       0.75743613       2.18322528       0.00000000
Si      -0.66290526       1.77173298      -1.44229182       0.00000000
Si       2.38295807      -0.13378977      -0.30790924       0.00000000
Si       1.34441370       2.95989300      -1.72302755       0.00000000
Si       2.99810512       2.16228573      -0.30155387       0.00000000
Si       0.39692214       2.92677543       2.38907066       0.00000000
Si      -0.41252796      -3.38694254      -1.75092249       0.00000000
Si       0.15907185      -0.95826577       3.78742453       0.00000000
Si       3.43242096      -0.94848362       1.65906158       0.00000000
