10
Lattice="16.28999089631971 0.0 0.0 0.0 16.28999089631971 0.0 0.0 0.0 34.35334932831803" Properties=species:S:1:pos:R:3:initial_magmoms:R:1 pbc="T T T"
Si       0.95527559       2.05662879       0.52649973       0.00000000
Si       0.90506004      -2.20360857       0.29777500       0.00000000
Si      -2.13822540       0.49378248       0.98872430       0.00000000
Si       0.07428240       0.06384051      -2.41428603       0.00000000
Si      -1.33880994       2.91234249       1.37471875       0.00000000
Si      -1.67120739      -1.57193613      -2.65153040       0.00000000
Si      -1.91715381      -0.97857288       2.84159526       0.00000000
Si      -0.54944541       2.30712012      -2.69138030       0.00000000
Si       0.42399516       2.20302702       2.80679667       0.00000000
Si      -0.22112046      -3.18777788      -1.65067936       0.00000000
