10
Lattice="16.28999089631971 0.0 0.0 0.0 16.28999089631971 0.0 0.0 0.0 34.35334932831803" Properties=species:S:1:pos:R:3:initial_magmoms:R:1 pbc="T T T"
Si      -1.35606105      -1.34755767       1.37479776       0.00000000
Si       1.35868374       1.36539522       1.37452293       0.00000000
Si      -1.38901572       1.36976094      -1.36873783       0.00000000
Si       1.46785932      -1.35539316      -1.32952346       0.00000000
Si       0.03235194       2.63366946      -2.73109765       0.00000000
Si      -2.71322982      -2.70485676      -0.01604989       0.00000000
Si       0.00156384      -2.70493821       2.73539727       0.00000000
Si      -2.70904329       2.73931011       0.01518762       0.00000000
Si      -2.71308321       0.00980658       2.73570646       0.00000000
Si       2.71862181       0.00917127       2.73546598       0.00000000
