10
Lattice="16.28999089631971 0.0 0.0 0.0 16.28999089631971 0.0 0.0 0.0 34.35334932831803" Properties=species:S:1:pos:R:3:initial_magmoms:R:1 pbc="T T T"
Si       1.35689184      -1.35267273      -1.35987809       0.00000000
Si      -1.35275418      -1.33529130       1.38574618       0.00000000
Si      -1.35721764       1.36099692      -1.35867573       0.00000000
Si       1.34820927       1.35684297       1.37811973       0.00000000
Si       2.71455733      -2.70974376       0.00274827       0.00000000
Si      -2.71604799      -2.71077003       0.00127107       0.00000000
Si      -0.00013032      -2.71112841      -2.71635520       0.00000000
Si       2.71483975       0.00345348      -2.71652697       0.00000000
Si      -2.71541268       0.00360009      -2.71632085       0.00000000
Si       2.71357191       2.71989243       0.00649279       0.00000000
