10
Lattice="16.28999089631971 0.0 0.0 0.0 16.28999089631971 0.0 0.0 0.0 34.35334932831803" Properties=species:S:1:pos:R:3:initial_magmoms:R:1 pbc="T T T"
Si       0.81811638       2.16037980      -0.44521966       0.00000000
Si      -2.14588170       0.54392310       0.80015866       0.00000000
Si       1.53640831      -0.70167546       1.78850507       0.00000000
Si      -0.06050106      -1.51117443      -1.98366656       0.00000000
Si      -2.01341142      -0.96262497       2.55369200       0.00000000
Si       2.43213025       1.31269707      -1.97569658       0.00000000
Si       0.96382572       0.10994121      -3.39078053       0.00000000
Si       0.42666768       3.18454839       1.82440434       0.00000000
Si      -1.84865436       2.59317252       1.92756751       0.00000000
Si       0.89447349      -2.97400014       2.09785716       0.00000000
