10
Lattice="16.28999089631971 0.0 0.0 0.0 16.28999089631971 0.0 0.0 0.0 34.35334932831803" Properties=species:S:1:pos:R:3:initial_magmoms:R:1 pbc="T T T"
Si       0.96556305       0.95008167       1.95766106       0.00000000
Si      -0.56599605      -2.37366477      -0.13507745       0.00000000
Si      -2.28882645       0.83043162       0.43171878       0.00000000
Si       1.63582781       0.41050800      -1.87263647       0.00000000
Si       0.01058850       2.41290738      -2.12386266       0.00000000
Si      -2.91887478      -0.77338404       2.17820968       0.00000000
Si       3.03209747      -0.18293670       2.16862509       0.00000000
Si       0.94666600      -1.43819523      -3.42822571       0.00000000
Si      -2.61894330      -2.75127023       0.95797803       0.00000000
Si       0.07108956       3.92408181      -0.14019610       0.00000000
