10
Lattice="16.28999089631971 0.0 0.0 0.0 16.28999089631971 0.0 0.0 0.0 34.35334932831803" Properties=species:S:1:pos:R:3:initial_magmoms:R:1 pbc="T T T"
Si      -1.32341589       1.33784883      -1.48052712       0.00000000
Si       1.37469681      -1.40256900      -1.48069889       0.00000000
Si      -1.78483014      -0.72079992       1.54153871       0.00000000
Si       1.84135644       1.11762432       1.27468174       0.00000000
Si      -2.66273082      -2.67325416      -0.04064003       0.00000000
Si      -2.62785393       2.79052587       0.03455949       0.00000000
Si      -0.45805851      -0.46485144       3.83026318       0.00000000
Si       3.46659575      -0.88477506       1.52590792       0.00000000
Si       2.77743394      -2.73347829      -0.02968131       0.00000000
Si       0.02933829       2.67314013      -2.86627330       0.00000000
