10
Lattice="16.28999089631971 0.0 0.0 0.0 16.28999089631971 0.0 0.0 0.0 34.35334932831803" Properties=species:S:1:pos:R:3:initial_magmoms:R:1 pbc="T T T"
Si       0.24179247      -2.29798143      -0.25582954       0.00000000
Si       2.12392834       0.84250251      -0.46435448       0.00000000
Si      -0.52473348       0.92864403       2.12540856       0.00000000
Si      -1.60217037      -0.20484675      -1.91341392       0.00000000
Si       1.94764936       0.05610276      -2.67860085       0.00000000
Si      -2.07200655      -0.71638533       2.68073076       0.00000000
Si       1.30571454      -2.21622192      -2.36924877       0.00000000
Si      -1.00916550       3.15043713       1.52632016       0.00000000
Si      -3.12181560      -1.72159236       0.85550194       0.00000000
Si      -3.64739616      -0.23089446      -0.89676033       0.00000000
