10
Lattice="16.28999089631971 0.0 0.0 0.0 16.28999089631971 0.0 0.0 0.0 34.35334932831803" Properties=species:S:1:pos:R:3:initial_magmoms:R:1 pbc="T T T"
Si      -2.04522579      -0.02604771       1.01665359       0.00000000
Si      -0.13247028       1.50654807      -1.75353334       0.00000000
Si       1.60217037       0.20484675       1.91341392       0.00000000
Si      -0.34650459      -2.13102522      -1.98177712       0.00000000
Si       1.84396284      -2.09313468       1.65758438       0.00000000
Si       2.01341142       0.96262497      -2.55369200       0.00000000
Si      -1.51964523      -1.51674561       2.76891586       0.00000000
Si       2.90788491      -2.01137517      -0.45583485       0.00000000
Si       0.16475706       3.55579749      -0.62612449       0.00000000
Si       3.54981973       0.26094951      -0.76518693       0.00000000
