10
Lattice="16.28999089631971 0.0 0.0 0.0 16.28999089631971 0.0 0.0 0.0 34.35334932831803" Properties=species:S:1:pos:R:3:initial_magmoms:R:1 pbc="T T T"
Si       0.90306873      -0.11404629      -2.15928098       0.00000000
Si       1.33131654      -0.31455990       1.90657760       0.00000000
Si      -1.86085557      -1.45761291      -0.03363195       0.00000000
Si      -0.59554611       2.24995851       0.44319281       0.00000000
Si      -0.14861367       0.39289851       3.65135083       0.00000000
Si      -2.65914702       2.55969657      -0.71255757       0.00000000
Si      -2.60027496       1.06790724      -2.53373270       0.00000000
Si      -0.95684202       2.40367095       2.78176402       0.00000000
Si      -0.44141013       1.10465748      -3.62891808       0.00000000
Si      -3.09596337      -1.33947783       1.95127133       0.00000000
