10
Lattice="16.28999089631971 0.0 0.0 0.0 16.28999089631971 0.0 0.0 0.0 34.35334932831803" Properties=species:S:1:pos:R:3:initial_magmoms:R:1 pbc="T T T"
Si      -1.10410362      -0.10959912      -2.07367238       0.00000000
Si       0.83935854      -2.10865905       0.67978446       0.00000000
Si       2.12323860       0.93532293      -0.49035998       0.00000000
Si      -0.97810047       1.12557384       1.85624991       0.00000000
Si       1.06306911       1.27553958       3.06067902       0.00000000
Si       3.01371257       0.87219918       1.73817739       0.00000000
Si      -2.92840443      -1.49776776      -1.70004515       0.00000000
Si       2.29361571      -2.62438416      -1.29374786       0.00000000
Si      -0.94703544      -3.61691757       0.74419702       0.00000000
Si       3.31982285      -0.55858410      -1.90805479       0.00000000
