10
Lattice="16.28999089631971 0.0 0.0 0.0 16.28999089631971 0.0 0.0 0.0 34.35334932831803" Properties=species:S:1:pos:R:3:initial_magmoms:R:1 pbc="T T T"
Si       0.22201641      -2.34165492      -0.15033034       0.00000000
Si       1.48490910       1.00727586      -1.56572348       0.00000000
Si      -2.19949209       0.23392440      -0.96818099       0.00000000
Si       0.29289420       1.25214714       2.05055257       0.00000000
Si       0.66612109       3.06732785      -0.72080238       0.00000000
Si      -2.13104151       1.36119240       2.20864677       0.00000000
Si      -2.05330563      -2.93303079      -0.04716717       0.00000000
Si       3.57144308       0.27505665      -0.51172778       0.00000000
Si      -3.11808519       2.00088441       0.19564243       0.00000000
Si       1.54898256      -3.11743359       1.68297152       0.00000000
