10
Lattice="16.28999089631971 0.0 0.0 0.0 16.28999089631971 0.0 0.0 0.0 34.35334932831803" Properties=species:S:1:pos:R:3:initial_magmoms:R:1 pbc="T T T"
Si       1.29157287       1.20370950      -1.54074858       0.00000000
Si      -0.61152660      -1.98998640      -1.09762448       0.00000000
Si       1.18012483      -0.26485911       2.03554015       0.00000000
Si      -1.98177624       1.19392735       0.58761437       0.00000000
Si      -2.86790337      -1.39455432      -1.46747284       0.00000000
Si       1.85851700       3.20405471      -0.42234031       0.00000000
Si      -1.76160060       1.84755383       2.83999298       0.00000000
Si      -3.80576754      -0.35497539       0.40897685       0.00000000
Si      -0.31151367       0.23171207       3.84084401       0.00000000
Si       3.25043234       0.01632258      -2.18020218       0.00000000
