10
Lattice="16.28999089631971 0.0 0.0 0.0 16.28999089631971 0.0 0.0 0.0 34.35334932831803" Properties=species:S:1:pos:R:3:initial_magmoms:R:1 pbc="T T T"
Si      -1.94724144      -0.34121034       1.19003504       0.00000000
Si      -0.58560921      -1.81933236      -1.32129926       0.00000000
Si       0.46302696       2.04926882      -1.21889187       0.00000000
Si       2.14494244      -0.47687346       1.34551839       0.00000000
Si       1.58920746       3.03343813       0.72956249       0.00000000
Si      -1.10833902      -1.23787710       3.20408530       0.00000000
Si      -0.75287493      -3.52854432       0.27705992       0.00000000
Si       1.36503425      -2.22267276      -2.64380089       0.00000000
Si       3.75156161       0.15716592      -0.27699121       0.00000000
Si       2.92528394      -0.48426912      -2.38886454       0.00000000
