10
Lattice="16.28999089631971 0.0 0.0 0.0 16.28999089631971 0.0 0.0 0.0 34.35334932831803" Properties=species:S:1:pos:R:3:initial_magmoms:R:1 pbc="T T T"
Si      -2.12392834      -0.84250251       0.46435448       0.00000000
Si       0.04094654       2.32404543      -0.34504523       0.00000000
Si      -0.17627898      -0.78639975      -2.21424637       0.00000000
Si       2.08331344      -1.06883577       0.66164588       0.00000000
Si       3.07412011       0.01238040      -1.21291438       0.00000000
Si       2.33678584       2.29436505      -1.10422032       0.00000000
Si      -1.88213587      -3.14048394       0.20852495       0.00000000
Si      -0.81821379      -3.05872443      -1.90489428       0.00000000
Si      -2.64866182       0.08614152       2.58976304       0.00000000
Si      -0.89663974       3.22141266       1.72422992       0.00000000
