10
Lattice="16.28999089631971 0.0 0.0 0.0 16.28999089631971 0.0 0.0 0.0 34.35334932831803" Properties=species:S:1:pos:R:3:initial_magmoms:R:1 pbc="T T T"
Si       0.62107254      -1.55181798       1.66101972       0.00000000
Si       0.89889849       2.17474758       0.17001482       0.00000000
Si       1.43751105      -0.70814259      -1.74621608       0.00000000
Si      -2.31917961      -0.16037505      -0.47459179       0.00000000
Si      -0.31509747       3.04114752      -1.66617273       0.00000000
Si       0.53711388      -3.49725123       0.30519533       0.00000000
Si       3.54569769       0.12649185      -1.03520441       0.00000000
Si       2.64015288      -0.67899978       2.53441976       0.00000000
Si       1.32100497      -3.03621165      -1.86384201       0.00000000
Si      -3.51576386       1.33353198       0.94310303       0.00000000
