10
Lattice="16.28999089631971 0.0 0.0 0.0 16.28999089631971 0.0 0.0 0.0 34.35334932831803" Properties=species:S:1:pos:R:3:initial_magmoms:R:1 pbc="T T T"
Si      -1.42566333       1.68287103       0.85052070       0.00000000
Si       1.18229562       0.76564629      -1.95123698       0.00000000
Si      -1.26067007      -1.90185750      -0.79081454       0.00000000
Si       1.67927094      -0.75254913       1.61258147       0.00000000
Si       0.44649261      -3.46688667      -0.45040701       0.00000000
Si       1.09833696      -1.17978696      -3.30706137       0.00000000
Si      -3.55707530       0.60567849       0.88490842       0.00000000
Si      -1.21374347      -1.64502936      -3.13179049       0.00000000
Si       3.68447220       0.15234408       0.64182398       0.00000000
Si       3.20137596       1.63846449      -1.07783694       0.00000000
