10
Lattice="16.28999089631971 0.0 0.0 0.0 16.28999089631971 0.0 0.0 0.0 34.35334932831803" Properties=species:S:1:pos:R:3:initial_magmoms:R:1 pbc="T T T"
Si       1.55719368       1.41361362      -1.07199686       0.00000000
Si       1.06202655       0.96523137       1.87638099       0.00000000
Si       1.28142027      -1.99423809      -0.46370177       0.00000000
Si      -2.08653397       0.73221921      -1.05399570       0.00000000
Si       3.13204572       0.93028932       0.67538723       0.00000000
Si      -3.57144308      -0.27505665       0.51172778       0.00000000
Si       0.27337878      -3.42217062       1.43552421       0.00000000
Si       3.54475287      -1.39155696       0.26744097       0.00000000
Si       1.37394747      -0.48550716       3.60566085       0.00000000
Si       0.98842833       3.69487078      -0.91537986       0.00000000
