10
Lattice="10.86 0.0 0.0 0.0 10.86 0.0 0.0 0.0 10.86" Properties=species:S:1:pos:R:3:initial_magmoms:R:1 pbc="T T T"
Si       1.06872174      -1.13079750      -1.49131692       0.00000000
Si       1.06872174       1.58420250       1.22368308       0.00000000
Si      -1.64627826      -1.13079750       1.22368308       0.00000000
Si       2.42622174      -2.48829750      -0.13381692       0.00000000
Si       2.42622174       0.22670250       2.58118308       0.00000000
Si      -0.28877826      -2.48829750       2.58118308       0.00000000
Si       2.42622174       0.22670250      -2.84881692       0.00000000
Si      -0.28877826      -2.48829750      -2.84881692       0.00000000
Si       2.42622174       2.94170250      -0.13381692       0.00000000
Si      -2.98711902       0.05378958       2.50547802       0.00000000
