10
Lattice="10.86 0.0 0.0 0.0 10.86 0.0 0.0 0.0 10.86" Properties=species:S:1:pos:R:3:initial_magmoms:R:1 pbc="T T T"
Si       1.35165732       1.29622788       1.30288506       0.00000000
Si      -1.36334268       1.29622788      -1.41211494       0.00000000
Si       1.35165732      -1.41877212      -1.41211494       0.00000000
Si      -0.00584268       2.65372788       2.66038506       0.00000000
Si       2.70915732       2.65372788      -0.05461494       0.00000000
Si       2.70915732      -0.06127212       2.66038506       0.00000000
Si      -2.72084268       2.65372788      -0.05461494       0.00000000
Si      -0.00584268       2.65372788      -2.76961494       0.00000000
Si       2.70915732      -0.06127212      -2.76961494       0.00000000
Si       2.70915732      -2.77627212      -0.05461494       0.00000000
