10
Lattice="10.86 0.0 0.0 0.0 10.86 0.0 0.0 0.0 10.86" Properties=species:S:1:pos:R:3:initial_magmoms:R:1 pbc="T T T"
Si      -1.20488442      -1.31987010       1.36563414       0.00000000
Si      -1.20488442       1.39512990      -1.34936586       0.00000000
Si       1.51011558      -1.31987010      -1.34936586       0.00000000
Si      -2.46833682       2.62108272      -0.03219990       0.00000000
Si      -2.56238442      -2.67737010       0.00813414       0.00000000
Si      -2.56238442       0.03762990      -2.70686586       0.00000000
Si       0.15261558      -2.67737010      -2.70686586       0.00000000
Si       0.15261558      -2.67737010       2.72313414       0.00000000
Si      -2.77563138       0.03760818       2.67437274       0.00000000
Si       2.81496630       2.63724240       0.08113506       0.00000000
