10
Lattice="10.86 0.0 0.0 0.0 10.86 0.0 0.0 0.0 10.86" Properties=species:S:1:pos:R:3:initial_magmoms:R:1 pbc="T T T"
Si       1.06178220       1.36496082       1.28020938       0.00000000
Si       1.06178220      -1.35003918      -1.43479062       0.00000000
Si      -1.65321780      -1.35003918       1.28020938       0.00000000
Si       2.41928220       0.00746082       2.63770938       0.00000000
Si       2.41928220      -2.70753918      -0.07729062       0.00000000
Si       2.41928220       2.72246082      -0.07729062       0.00000000
Si       2.41928220       0.00746082      -2.79229062       0.00000000
Si      -0.29571780      -2.70753918       2.63770938       0.00000000
Si      -0.35048478       2.91983046       2.41107204       0.00000000
Si      -0.29571780      -2.70753918      -2.79229062       0.00000000
