10
Lattice="10.86 0.0 0.0 0.0 10.86 0.0 0.0 0.0 10.86" Properties=species:S:1:pos:R:3:initial_magmoms:R:1 pbc="T T T"
Si       1.25553546       1.32651642       1.20153954       0.00000000
Si       1.36740432      -1.34942016      -1.32273714       0.00000000
Si      -1.45946454      -1.38848358       1.20153954       0.00000000
Si      -1.45946454       1.32651642      -1.51346046       0.00000000
Si      -0.10196454       2.68401642       2.55903954       0.00000000
Si       2.61303546       2.68401642      -0.15596046       0.00000000
Si       2.75808162      -0.06741888       2.58506010       0.00000000
Si      -2.81696454      -0.03098358       2.55903954       0.00000000
Si      -0.26182374      -2.89390764       2.49012198       0.00000000
Si      -2.81696454       2.68401642      -0.15596046       0.00000000
