10
Lattice="10.86 0.0 0.0 0.0 10.86 0.0 0.0 0.0 10.86" Properties=species:S:1:pos:R:3:initial_magmoms:R:1 pbc="T T T"
Si      -1.56078834      -1.18086210       1.16325804       0.00000000
Si      -1.24929096       1.61899794      -1.29729216       0.00000000
Si       2.65657320       0.41980416       2.35784718       0.00000000
Si      -0.12755070      -2.50723734       2.63993568       0.00000000
Si      -0.15520026      -2.56007124      -2.80255332       0.00000000
Si      -2.87851902       0.07451046       2.51556696       0.00000000
Si       2.50200282       2.98104828      -0.16238958       0.00000000
Si       0.14138634       2.90099922       2.61050508       0.00000000
Si       3.00705798      -2.50002630      -0.05322486       0.00000000
Si      -2.61669528       2.96841810       0.02544498       0.00000000
