10
Lattice="10.86 0.0 0.0 0.0 10.86 0.0 0.0 0.0 10.86" Properties=species:S:1:pos:R:3:initial_magmoms:R:1 pbc="T T T"
Si      -1.14816264       1.31388624      -1.32562590       0.00000000
Si       1.56683736       1.31388624       1.38937410       0.00000000
Si       1.56683736      -1.40111376      -1.32562590       0.00000000
Si       0.15457038      -2.56124412       2.52023676       0.00000000
Si      -2.36061648      -0.08004906       2.77289466       0.00000000
Si      -2.50566264       2.67138624       0.03187410       0.00000000
Si      -2.38994934      -0.09717528      -2.84403852       0.00000000
Si       0.20933736       2.67138624      -2.68312590       0.00000000
Si       0.20933736       2.67138624       2.74687410       0.00000000
Si       0.48704928      -2.66867124      -2.77930206       0.00000000
