10
Lattice="16.290000149 0.0 0.0 0.0 16.290000149 0.0 0.0 0.0 29.1751946751" Properties=species:S:1:pos:R:3:initial_magmoms:R:1 pbc="T T T"
Si      -1.33942897      -1.38202732       1.31288376       0.00000000
Si       1.30205971      -1.34688979      -1.43060567       0.00000000
Si       1.22232016       1.43296452       1.43539040       0.00000000
Si      -1.40682070       1.34182849      -1.35457511       0.00000000
Si       0.20276163      -2.69825933       2.50603252       0.00000000
Si      -2.66400146       0.03765710       2.64420624       0.00000000
Si       2.63498897       2.71643897       0.05286545       0.00000000
Si      -0.29175390       2.75874411       2.63291544       0.00000000
Si       2.65548179       0.00975771      -2.76236578       0.00000000
Si      -0.07128504       2.70488936      -2.72327102       0.00000000
