10
Lattice="16.290000149 0.0 0.0 0.0 16.290000149 0.0 0.0 0.0 29.1751946751" Properties=species:S:1:pos:R:3:initial_magmoms:R:1 pbc="T T T"
Si      -0.43847793       0.25353756      -2.28149147       0.00000000
Si       0.80992252       1.85937320       1.17834819       0.00000000
Si      -1.87569578      -0.80361829       1.19158497       0.00000000
Si       1.63282816      -1.73571581       0.08182767       0.00000000
Si       2.18468450       0.59360761       2.59376525       0.00000000
Si      -0.67263040      -2.20165868       2.63159381       0.00000000
Si      -2.15946758       1.88033843      -2.18302519       0.00000000
Si      -0.48969369      -2.03906819      -2.94289313       0.00000000
Si       1.71567911      -2.42670503      -2.14737310       0.00000000
Si       0.64352017      -3.52415908       1.23152289       0.00000000
