10
Lattice="16.290000149 0.0 0.0 0.0 16.290000149 0.0 0.0 0.0 29.1751946751" Properties=species:S:1:pos:R:3:initial_magmoms:R:1 pbc="T T T"
Si       1.07698078      -1.42386004      -1.49814625       0.00000000
Si      -1.54219060       1.31623201      -1.19314876       0.00000000
Si      -1.06663663      -1.76893112       1.15775925       0.00000000
Si       2.12742515       0.96659974       0.68126997       0.00000000
Si       0.21243789       0.79666246       3.38782361       0.00000000
Si       2.36828909      -2.72039744      -0.07057480       0.00000000
Si      -0.20276163       2.69825933      -2.50603252       0.00000000
Si      -1.35677782      -0.94213216       3.31409789       0.00000000
Si       2.49078989      -0.09870111      -2.73876305       0.00000000
Si       0.53525682      -3.54486693       1.09065630       0.00000000
