10
Lattice="16.290000149 0.0 0.0 0.0 16.290000149 0.0 0.0 0.0 29.1751946751" Properties=species:S:1:pos:R:3:initial_magmoms:R:1 pbc="T T T"
Si      -1.35580042      -1.31520574       1.39794988       0.00000000
Si       1.34385985       1.36948402       1.36206439       0.00000000
Si      -1.37363797       1.35092971      -1.36097032       0.00000000
Si       1.42864930      -1.37451763      -1.29161213       0.00000000
Si      -2.67647960      -2.65549808       0.00391239       0.00000000
Si      -2.54826101      -0.11466531      -2.81118464       0.00000000
Si       2.68599296      -0.00807984      -2.71992463       0.00000000
Si       2.71075376       2.71893134       0.01085025       0.00000000
Si      -0.00281817      -2.68281641       2.75299179       0.00000000
Si       2.80341129      -2.64028322       0.12380494       0.00000000
