10
Lattice="16.290000149 0.0 0.0 0.0 16.290000149 0.0 0.0 0.0 29.1751946751" Properties=species:S:1:pos:R:3:initial_magmoms:R:1 pbc="T T T"
Si       1.31185000       1.36013356       1.34431128       0.00000000
Si      -1.37476198       1.26576559      -1.41541706       0.00000000
Si       1.28749645      -1.44829504      -1.32810154       0.00000000
Si      -1.42819318      -1.39121488       1.27925060       0.00000000
Si      -2.18468450      -0.59360761      -2.59376525       0.00000000
Si      -0.55185634      -2.32932341      -2.51193758       0.00000000
Si       2.61967637       2.64911240      -0.12711049       0.00000000
Si       2.62809830      -0.03207501       2.68517405       0.00000000
Si      -0.10800270       2.69024465       2.64508733       0.00000000
Si       2.53588061      -2.82005967       0.08389327       0.00000000
