10
Lattice="16.290000149 0.0 0.0 0.0 16.290000149 0.0 0.0 0.0 29.1751946751" Properties=species:S:1:pos:R:3:initial_magmoms:R:1 pbc="T T T"
Si       1.35430174       1.37393119       1.33246032       0.00000000
Si      -1.32832245       1.35951454      -1.37394744       0.00000000
Si       1.38507355      -1.35546322      -1.33263537       0.00000000
Si      -1.34626426      -1.35302298       1.37733177       0.00000000
Si       2.71099811       0.01200573       2.66626269       0.00000000
Si      -2.69824304      -0.00956223      -2.69788860       0.00000000
Si       0.06081057      -2.69125463       2.70850837       0.00000000
Si       0.02818170      -2.71844264      -2.68222152       0.00000000
Si      -2.69430086       2.70884783      -0.02310675       0.00000000
Si      -0.02248020       2.71282259       2.69698417       0.00000000
