10
Lattice="16.290000149 0.0 0.0 0.0 16.290000149 0.0 0.0 0.0 29.1751946751" Properties=species:S:1:pos:R:3:initial_magmoms:R:1 pbc="T T T"
Si      -1.25734366      -1.36643779       1.42831250       0.00000000
Si      -1.45207432       1.41662728      -1.21654727       0.00000000
Si       0.95765653      -1.27084807      -1.75360425       0.00000000
Si       1.38844558       1.37930689       1.34080150       0.00000000
Si       2.35183619       0.16324209      -2.92991893       0.00000000
Si      -2.68599296       0.00807984       2.71992463       0.00000000
Si      -2.06726618      -3.22581099       0.24996432       0.00000000
Si       2.73709469       0.01690902       2.71661908       0.00000000
Si       0.02476080       2.72701118       2.73077488       0.00000000
Si      -0.18653679       2.89957116      -2.54253069       0.00000000
