10
Lattice="16.290000149 0.0 0.0 0.0 16.290000149 0.0 0.0 0.0 29.1751946751" Properties=species:S:1:pos:R:3:initial_magmoms:R:1 pbc="T T T"
Si       1.42064440       1.44057358       1.16551985       0.00000000
Si       1.43668190      -1.24390441      -1.36849168       0.00000000
Si      -1.29380068       1.40985064      -1.36111036       0.00000000
Si      -1.63874144      -1.05759568       1.43244371       0.00000000
H        0.24834431      -2.68656311       1.69432026       0.00000000
H       -1.09911889       1.40802616       2.80904609       0.00000000
Si      -0.06501339       2.51424749       2.59539614       0.00000000
Si      -2.62236422       2.48345939       0.26222665       0.00000000
Si      -3.31428198       0.62299477       1.68302946       0.00000000
Si       0.07912460      -2.65414601      -2.68295090       0.00000000
