10
Lattice="16.290000149 0.0 0.0 0.0 16.290000149 0.0 0.0 0.0 29.1751946751" Properties=species:S:1:pos:R:3:initial_magmoms:R:1 pbc="T T T"
Si       1.38541564      -1.34263810      -1.33505691       0.00000000
Si      -1.29546226       1.30407967      -1.46132715       0.00000000
Si       1.38795688       1.35782038       1.33038888       0.00000000
Si      -1.34843734      -1.39009087       1.34690204       0.00000000
Si      -2.77726584       0.05346378       2.46956353       0.00000000
Si      -2.65476503       2.67516011      -0.19862473       0.00000000
Si       2.70785414      -0.02085120       2.66515403       0.00000000
Si       0.02047653      -2.68200191      -2.70704961       0.00000000
Si      -2.70785414      -2.69653259      -0.04347104       0.00000000
Si       2.72891711       0.02796993      -2.70048519       0.00000000
