10
Lattice="16.290000149 0.0 0.0 0.0 16.290000149 0.0 0.0 0.0 29.1751946751" Properties=species:S:1:pos:R:3:initial_magmoms:R:1 pbc="T T T"
Si      -1.29884371      -1.29040259       1.47182147       0.00000000
Si      -1.44934702       1.38458485      -1.22701533       0.00000000
Si       1.36268168       1.39496158       1.31733881       0.00000000
Si       1.43219599      -1.30739794      -1.35078526       0.00000000
Si      -2.62410038      -2.62650302       0.13510449       0.00000000
Si      -0.12809769       2.71046054      -2.59240802       0.00000000
Si       0.08443615      -2.52051979      -2.83154892       0.00000000
Si       2.71196610      -2.68112225       0.03483518       0.00000000
Si       2.65667784       0.04064355       2.74768191       0.00000000
Si       0.01194712       2.72130968       2.72323309       0.00000000
