10
Lattice="16.290000149 0.0 0.0 0.0 16.290000149 0.0 0.0 0.0 29.1751946751" Properties=species:S:1:pos:R:3:initial_magmoms:R:1 pbc="T T T"
Si       1.37929060       1.31784472      -1.36382365       0.00000000
Si      -1.37362168      -1.32618520      -1.36312345       0.00000000
Si       1.35487189      -1.37059174       1.33931649       0.00000000
Si      -1.36979353       1.37891593       1.32134457       0.00000000
Si      -0.05385474       2.63780714      -2.64595676       0.00000000
Si       0.04623102      -2.65629629      -2.66389950       0.00000000
Si       2.72453510      -0.00897579       2.66655444       0.00000000
Si      -2.72989452       0.01656693       2.66503733       0.00000000
Si      -0.01646919       2.73233801       2.68192977       0.00000000
Si      -0.00112401      -2.72575685       2.69736345       0.00000000
