10
Lattice="16.290000149 0.0 0.0 0.0 16.290000149 0.0 0.0 0.0 29.1751946751" Properties=species:S:1:pos:R:3:initial_magmoms:R:1 pbc="T T T"
H       -0.90116281       0.74298691       0.97713562       0.00000000
Si       1.15167043       1.63908353      -1.18130363       0.00000000
Si       1.40096477      -1.17056683       1.46094787       0.00000000
Si      -1.59055561      -1.13161744      -1.33940401       0.00000000
Si      -1.98166223       2.45524511       1.76520898       0.00000000
Si      -0.61540363       2.79655320      -2.21220914       0.00000000
Si       2.61651286       0.43003971      -2.52053259       0.00000000
Si      -0.05846481      -2.34981623       2.87658959       0.00000000
Si      -2.22816251       2.96965074      -0.53320586       0.00000000
Si       2.86066901      -2.45026037       0.11559212       0.00000000
