10
Lattice="16.290000149 0.0 0.0 0.0 16.290000149 0.0 0.0 0.0 29.1751946751" Properties=species:S:1:pos:R:3:initial_magmoms:R:1 pbc="T T T"
Si       0.90391582       0.07485255      -1.21975654       0.00000000
H       -1.28047546      -1.75187549      -0.43351422       0.00000000
H        1.88687072       0.43660458       1.22993868       0.00000000
Si      -1.82242748      -2.00668367       0.94772702       0.00000000
Si       1.16409970       2.95159653       0.23278888       0.00000000
Si       0.01888011       1.49055130      -2.81841133       0.00000000
Si       1.24393699      -2.04498146      -2.15420885       0.00000000
Si       2.78878287       1.42219846      -0.83764901       0.00000000
Si      -2.67185324      -0.13356171       2.06706254       0.00000000
H       -2.86495491      -0.90095104      -1.62482494       0.00000000
