10
Lattice="16.290000149 0.0 0.0 0.0 16.290000149 0.0 0.0 0.0 29.1751946751" Properties=species:S:1:pos:R:3:initial_magmoms:R:1 pbc="T T T"
Si      -1.36519812      -1.34682463       1.34707709       0.00000000
Si       1.34936587      -1.36260964      -1.36035180       0.00000000
Si      -1.40707483       1.33823166      -1.33117661       0.00000000
Si       1.34697124       1.35799469       1.38016176       0.00000000
Si       2.65018754       2.70326036      -0.04224568       0.00000000
Si      -2.72154113       0.04469438       2.67431504       0.00000000
Si      -0.06081057       2.69125463      -2.70850837       0.00000000
Si       2.71420724      -0.01236411      -2.70827497       0.00000000
Si       2.72093501      -2.71287146      -0.01377069       0.00000000
Si      -0.07340274       2.70314633       2.72992297       0.00000000
