10
Lattice="16.290000149 0.0 0.0 0.0 16.290000149 0.0 0.0 0.0 29.1751946751" Properties=species:S:1:pos:R:3:initial_magmoms:R:1 pbc="T T T"
H       -1.26915391       0.39829050      -0.88657582       0.00000000
Si       1.74700478      -1.47196441      -0.39704522       0.00000000
Si      -1.94536811      -1.27509976       0.45927591       0.00000000
Si       0.54494937       1.86642677       1.43148093       0.00000000
Si      -1.29195991       0.96184306      -2.38072506       0.00000000
H       -0.11403000      -1.09468801       2.88790664       0.00000000
Si       3.31622049       0.26683020      -0.32331951       0.00000000
Si      -1.48155922      -1.67992256       2.66066105       0.00000000
Si       2.76980502       1.29681433       1.69432026       0.00000000
Si      -2.73008999       2.16521795      -0.97605614       0.00000000
