10
Lattice="16.290000149 0.0 0.0 0.0 16.290000149 0.0 0.0 0.0 29.1751946751" Properties=species:S:1:pos:R:3:initial_magmoms:R:1 pbc="T T T"
Si      -1.32998077       1.31404915       1.41890934       0.00000000
Si      -1.42760674      -1.35953083      -1.27752138       0.00000000
Si       1.32875902      -1.39582495       1.36839832       0.00000000
Si       1.33563340       1.36536721      -1.40695042       0.00000000
Si       0.01689273      -2.55458153      -2.63356313       0.00000000
Si       2.63353916       2.64906679       0.09819787       0.00000000
Si      -2.60975088       2.68777346       0.03328890       0.00000000
Si      -2.74191979      -0.07625349       2.67512612       0.00000000
Si       2.66561417      -0.07074747       2.77254209       0.00000000
Si       2.71088408      -2.75180457       0.04387658       0.00000000
