10
Lattice="16.290000149 0.0 0.0 0.0 16.290000149 0.0 0.0 0.0 29.1751946751" Properties=species:S:1:pos:R:3:initial_magmoms:R:1 pbc="T T T"
Si       1.24838416      -1.37176462       1.41199481       0.00000000
Si      -1.28749645       1.44829504       1.32810154       0.00000000
Si       1.90672823       0.78977179      -1.12318373       0.00000000
Si      -1.83935279      -0.88102837      -1.18383604       0.00000000
H        0.69454045      -1.82990459      -1.92230106       0.00000000
Si       1.25415082       1.21238326      -3.25487808       0.00000000
Si       2.66769929       0.05774805       2.64685535       0.00000000
Si      -2.71568963       0.05708016       2.60735214       0.00000000
Si       2.74556550      -2.60728783       0.13139341       0.00000000
Si      -3.47218095       0.85468744      -1.26566371       0.00000000
