10
Lattice="16.290000149 0.0 0.0 0.0 16.290000149 0.0 0.0 0.0 29.1751946751" Properties=species:S:1:pos:R:3:initial_magmoms:R:1 pbc="T T T"
Si       1.35330805       1.39725847      -1.32029426       0.00000000
Si      -1.35187453       1.36902790       1.35836789       0.00000000
Si       1.37645614      -1.34705269       1.35886387       0.00000000
Si      -1.36233271      -1.36787131      -1.36256912       0.00000000
Si       2.73543311       0.04127886      -2.64481601       0.00000000
Si      -2.70846013      -2.69698871       0.01776769       0.00000000
Si       2.69016320       2.72233595       0.08384951       0.00000000
Si       0.02103039      -2.69127092       2.73354069       0.00000000
Si      -2.69868613       0.02116071       2.72636359       0.00000000
Si      -2.71737076       2.71682993      -0.01356647       0.00000000
