10
Lattice="16.290000149 0.0 0.0 0.0 16.290000149 0.0 0.0 0.0 29.1751946751" Properties=species:S:1:pos:R:3:initial_magmoms:R:1 pbc="T T T"
Si       1.34796493      -1.34729704      -1.36607014       0.00000000
Si      -1.35366643      -1.37394748       1.34375112       0.00000000
Si      -1.35547462       1.33024141      -1.38754308       0.00000000
Si       1.36493911       1.33936381       1.37199270       0.00000000
Si      -0.02047653       2.68200191       2.70704961       0.00000000
Si      -2.72833068      -0.01453068       2.66357857       0.00000000
Si       2.68345172      -2.72473058      -0.01414997       0.00000000
Si      -0.01052334      -2.71220357      -2.69698417       0.00000000
Si      -2.73614988       2.67649589      -0.06698625       0.00000000
Si       2.70844058       2.70997184       0.00656442       0.00000000
