10
Lattice="16.290000149 0.0 0.0 0.0 16.290000149 0.0 0.0 0.0 29.1751946751" Properties=species:S:1:pos:R:3:initial_magmoms:R:1 pbc="T T T"
Si      -1.32709744       1.35847198       1.36642024       0.00000000
Si       1.37671678      -1.33975477       1.35877634       0.00000000
Si       1.41076288       1.40421430      -1.25765512       0.00000000
Si      -1.41931513      -1.42951267      -1.23486054       0.00000000
Si       0.07786620      -2.66503588      -2.51546194       0.00000000
Si       2.66880701       0.00346977      -2.62213521       0.00000000
Si      -2.66769929      -0.05774805      -2.64685535       0.00000000
Si       0.05103657       2.72240111       2.67093072       0.00000000
Si      -2.64334574       2.75068056       0.02555747       0.00000000
Si       0.09620874       2.66823686      -2.72992005       0.00000000
