10
Lattice="16.290000149 0.0 0.0 0.0 16.290000149 0.0 0.0 0.0 29.1751946751" Properties=species:S:1:pos:R:3:initial_magmoms:R:1 pbc="T T T"
Si       0.84942577      -1.87312196      -1.11933552       0.00000000
Si       1.48838473       1.25480242       1.36872508       0.00000000
Si      -1.39334887       1.31662297      -1.42249497       0.00000000
Si      -1.31269708      -1.36702423       1.48075783       0.00000000
H        1.39137778      -1.61831377      -2.50057676       0.00000000
H        2.67185324       0.13356171      -2.06706254       0.00000000
Si       0.00604359       2.55292451       2.70737054       0.00000000
Si      -2.80103295       2.49976568       0.04052435       0.00000000
H       -0.19310166      -0.76738933      -3.69188748       0.00000000
Si       2.54115857      -2.80383483       0.18850093       0.00000000
