10
Lattice="16.290000149 0.0 0.0 0.0 16.290000149 0.0 0.0 0.0 29.1751946751" Properties=species:S:1:pos:R:3:initial_magmoms:R:1 pbc="T T T"
Si       1.33106894       1.35992179       1.37849294       0.00000000
Si      -1.29539710      -1.31453785       1.46861511       0.00000000
Si      -1.38771253       1.36024759      -1.35624102       0.00000000
Si       1.40026398      -1.34931700      -1.36869299       0.00000000
Si      -0.10596645      -2.73437427      -2.53630120       0.00000000
Si       0.07171705       2.53949699      -2.77188273       0.00000000
Si      -2.68525991      -2.65950542       0.19357158       0.00000000
Si       2.67719636       2.68903919      -0.00184387       0.00000000
Si       2.70040961       0.01107720       2.74152886       0.00000000
Si       2.75889072      -2.68838759       0.01258034       0.00000000
