10
Lattice="16.290000149 0.0 0.0 0.0 16.290000149 0.0 0.0 0.0 29.1751946751" Properties=species:S:1:pos:R:3:initial_magmoms:R:1 pbc="T T T"
Si      -0.54641547       1.02998413       2.01763976       0.00000000
Si      -1.56921571      -1.73879462      -0.07372572       0.00000000
Si       2.19895454      -0.71387668      -0.46280611       0.00000000
Si       0.04768083       2.14854025      -0.97430563       0.00000000
Si       0.68646061       2.82456548       1.17150077       0.00000000
Si       1.91498726       0.16993728      -2.70655363       0.00000000
Si      -3.31622049      -0.26683020       0.32331951       0.00000000
Si       1.92689525      -2.74678725       0.73296842       0.00000000
Si      -0.21243789      -0.79666246      -3.38782361       0.00000000
Si      -1.27907452      -2.56559357      -2.23006436       0.00000000
