10
Lattice="16.290000149 0.0 0.0 0.0 16.290000149 0.0 0.0 0.0 29.1751946751" Properties=species:S:1:pos:R:3:initial_magmoms:R:1 pbc="T T T"
Si       1.36519812       1.34682463      -1.34707709       0.00000000
Si       1.32624873      -1.38618127       1.35413749       0.00000000
Si      -1.35634301       1.39151902       1.32723796       0.00000000
Si      -1.36946936      -1.36764325      -1.34605596       0.00000000
Si       2.65486115       0.12919599       2.51306374       0.00000000
Si      -2.66568096       0.05181849       2.69418335       0.00000000
Si      -0.04187670       2.68505629      -2.67825370       0.00000000
Si      -0.09876138      -2.74554921       2.62845164       0.00000000
Si       2.71049150      -2.69995349      -0.01242863       0.00000000
Si       2.71216937       2.70481932       0.03308467       0.00000000
