10
Lattice="16.290000149 0.0 0.0 0.0 16.290000149 0.0 0.0 0.0 29.1751946751" Properties=species:S:1:pos:R:3:initial_magmoms:R:1 pbc="T T T"
Si      -1.36462960      -1.34745831       1.34917770       0.00000000
Si      -1.36260964       1.36550926      -1.33549454       0.00000000
Si       1.35967744       1.34325712       1.36359025       0.00000000
Si       1.36236529      -1.36242719      -1.34570585       0.00000000
Si       0.01234782      -2.69327459       2.68303843       0.00000000
Si       2.71194293       0.02533095      -2.68052936       0.00000000
Si       0.00812871       2.72355770      -2.67288546       0.00000000
Si      -2.74831851       0.01526373      -2.65996085       0.00000000
Si      -0.00105885       2.69452892       2.71635650       0.00000000
Si      -2.71443530      -2.71788878      -0.00145876       0.00000000
