10
Lattice="16.290000149 0.0 0.0 0.0 16.290000149 0.0 0.0 0.0 29.1751946751" Properties=species:S:1:pos:R:3:initial_magmoms:R:1 pbc="T T T"
H        1.31442382      -0.46042056       0.60092148       0.00000000
Si      -1.24825384       0.24123861       1.94887383       0.00000000
Si       0.27205929       2.03291057      -1.19577453       0.00000000
Si      -0.97692760      -1.99619291      -0.87969047       0.00000000
H        1.88151131      -0.58316572      -1.72851358       0.00000000
Si       3.06683688      -1.09670797      -0.93001768       0.00000000
H       -0.88733260      -2.82136287       1.69834643       0.00000000
Si      -1.92689525       2.74678725      -0.73296842       0.00000000
Si      -3.30085902      -0.47475576       1.05485834       0.00000000
H        1.07157250       0.16376337      -3.37971290       0.00000000
