10
Lattice="16.290000149 0.0 0.0 0.0 16.290000149 0.0 0.0 0.0 29.1751946751" Properties=species:S:1:pos:R:3:initial_magmoms:R:1 pbc="T T T"
Si       1.18532557      -0.51354225       0.79849590       0.00000000
H       -0.80993881       0.74692909      -1.65119932       0.00000000
H        0.62648083       1.65947861      -1.10702359       0.00000000
H       -0.56708749       0.12274515       2.32943507       0.00000000
Si      -1.88151131       0.58316572       1.72851358       0.00000000
Si      -1.65255536      -0.18710694      -2.46285323       0.00000000
Si       2.51388911      -1.58715100      -0.82484110       0.00000000
Si      -1.60945201       2.61607628       0.53273905       0.00000000
Si       0.49340781      -2.37400688       2.21929871       0.00000000
Si      -2.85843891      -1.41302719       0.84882311       0.00000000
