10
Lattice="16.290000149 0.0 0.0 0.0 16.290000149 0.0 0.0 0.0 29.1751946751" Properties=species:S:1:pos:R:3:initial_magmoms:R:1 pbc="T T T"
Si      -1.36254448      -1.36337527       1.33847041       0.00000000
Si      -1.36065484       1.35342534      -1.35092821       0.00000000
Si       1.33110478       1.35467478       1.38377948       0.00000000
Si       1.35037585      -1.36107838      -1.35927232       0.00000000
Si       2.68214852       2.70555725       0.01009462       0.00000000
Si      -2.71067231       0.02257794       2.67781607       0.00000000
Si       0.02060685      -2.70850574       2.68411791       0.00000000
Si      -2.70726770      -0.03468141      -2.68980707       0.00000000
Si       2.66330099      -0.01117494       2.75545126       0.00000000
Si      -0.01107720       2.74118349      -2.68575172       0.00000000
