10
Lattice="16.290000149 0.0 0.0 0.0 16.290000149 0.0 0.0 0.0 29.1751946751" Properties=species:S:1:pos:R:3:initial_magmoms:R:1 pbc="T T T"
Si       1.36014985       1.35456238       1.35273708       0.00000000
Si      -1.33130189      -1.35795070       1.38217485       0.00000000
Si       1.37916028      -1.35917245      -1.33491103       0.00000000
Si      -1.36934067       1.34884459      -1.36303592       0.00000000
Si      -2.66633126      -2.73460233       0.03781105       0.00000000
Si      -0.00886176       2.70725141       2.70468642       0.00000000
Si       2.71557560       2.69878061      -0.02193975       0.00000000
Si      -0.02321325       2.67796199      -2.74337273       0.00000000
Si      -2.72072324       0.00208512       2.70471560       0.00000000
Si       2.70892928      -0.00596214       2.71685248       0.00000000
