10
Lattice="16.290000149 0.0 0.0 0.0 16.290000149 0.0 0.0 0.0 29.1751946751" Properties=species:S:1:pos:R:3:initial_magmoms:R:1 pbc="T T T"
Si      -1.44449947       1.19505070       1.35604175       0.00000000
Si      -1.35801586      -1.34254036      -1.34456802       0.00000000
Si       1.28107819      -1.49459122       1.33534895       0.00000000
Si       1.31269708       1.36702423      -1.48075783       0.00000000
Si       2.16212285      -0.50609772      -2.60009335       0.00000000
Si       0.36447246      -2.10284354      -2.72082031       0.00000000
Si      -0.01689273       2.55458153       2.63356313       0.00000000
Si      -2.80369962       2.43706547      -0.09875803       0.00000000
Si       2.69399135      -0.19722303       2.67743971       0.00000000
Si      -2.78968044      -0.26691165       2.58858082       0.00000000
