10
Lattice="16.290000149 0.0 0.0 0.0 16.290000149 0.0 0.0 0.0 29.1751946751" Properties=species:S:1:pos:R:3:initial_magmoms:R:1 pbc="T T T"
Si      -1.61275888       0.17309754       1.67900328       0.00000000
Si       0.83401543       1.92789871      -1.02180284       0.00000000
Si       1.76707406      -1.15746967       1.03090550       0.00000000
Si      -1.55911591      -0.78211549      -1.59308233       0.00000000
H       -0.21193290       3.04156783      -1.00438525       0.00000000
Si      -2.05071554       2.46189632       1.37680661       0.00000000
Si       0.61540363      -2.79655320       2.21220914       0.00000000
Si       1.11596275       1.19262349      -3.22989828       0.00000000
Si      -2.47560761      -2.61636950      -0.42076466       0.00000000
Si      -0.41288634      -0.65254483      -3.65349293       0.00000000
