10
Lattice="16.290000149 0.0 0.0 0.0 16.290000149 0.0 0.0 0.0 29.1751946751" Properties=species:S:1:pos:R:3:initial_magmoms:R:1 pbc="T T T"
Si       0.17791938      -1.38700229      -0.61200806       0.00000000
Si      -0.69454045       1.82990459       1.92230106       0.00000000
Si      -0.51178293       1.28267461      -2.39621709       0.00000000
Si      -2.53389323       0.94887622       0.73846502       0.00000000
Si      -2.45104229       0.25788699      -1.49073575       0.00000000
Si       1.21218778       2.61967637       0.79911733       0.00000000
Si       2.05102505      -0.77738324       2.05369447       0.00000000
Si       1.01193481      -2.63122598       1.10133734       0.00000000
Si       2.91648018       0.95109166       0.67218686       0.00000000
Si       2.07381476      -1.37011445      -1.95030341       0.00000000
