10
Lattice="16.290000149 0.0 0.0 0.0 16.290000149 0.0 0.0 0.0 29.1751946751" Properties=species:S:1:pos:R:3:initial_magmoms:R:1 pbc="T T T"
Si       1.34863282       1.36213723       1.34818575       0.00000000
Si      -1.34304698       1.36019872      -1.36076025       0.00000000
Si       1.36023130      -1.35464383      -1.35247450       0.00000000
Si      -1.36831440      -1.36295173       1.34532658       0.00000000
Si      -0.03334563      -2.69711903      -2.68067524       0.00000000
Si      -2.67807635      -0.01645290      -2.70512405       0.00000000
Si       2.69322572      -0.01562211       2.69365820       0.00000000
Si      -0.04263093       2.70879896       2.68125874       0.00000000
Si       2.69718419       2.71218728      -0.02608262       0.00000000
Si       2.68977224      -2.72293868       0.02158964       0.00000000
