10
Lattice="16.290000149 0.0 0.0 0.0 16.290000149 0.0 0.0 0.0 29.1751946751" Properties=species:S:1:pos:R:3:initial_magmoms:R:1 pbc="T T T"
Si       1.30723993      -1.42516324      -1.30162243       0.00000000
Si       1.41291316       1.29736819       1.34209076       0.00000000
Si      -1.30031668      -1.48278097       1.27387915       0.00000000
Si      -1.28107819       1.49459122      -1.33534895       0.00000000
Si       2.57277746       0.05778063      -2.62760585       0.00000000
Si      -2.68485266      -0.11178198       2.62433764       0.00000000
Si       0.03078810       2.65334780       2.66661250       0.00000000
Si      -2.63909405       0.15205086      -2.67991697       0.00000000
Si      -0.07135020      -2.45216630      -2.93377034       0.00000000
Si      -2.72557766       2.68964192       0.02069280       0.00000000
