10
Lattice="16.290000149 0.0 0.0 0.0 16.290000149 0.0 0.0 0.0 29.1751946751" Properties=species:S:1:pos:R:3:initial_magmoms:R:1 pbc="T T T"
Si       2.26939413      -0.48260754       0.11868469       0.00000000
Si      -0.28194732       0.73527522       2.20809543       0.00000000
Si      -0.58178107       1.74029492      -1.51681837       0.00000000
Si      -1.52884909      -1.84516832      -0.42359465       0.00000000
H       -1.32789565       1.84894434       2.22551303       0.00000000
Si       2.54339030      -1.30808701      -2.03453220       0.00000000
Si      -1.11596275      -1.19262349       3.22989828       0.00000000
Si      -2.67507866      -1.97473898       1.63681595       0.00000000
Si      -3.05805657      -0.84717775      -1.92556285       0.00000000
Si      -1.77044609       0.59106555      -3.20909636       0.00000000
