10
Lattice="16.290000149 0.0 0.0 0.0 16.290000149 0.0 0.0 0.0 29.1751946751" Properties=species:S:1:pos:R:3:initial_magmoms:R:1 pbc="T T T"
Si      -2.05599350       0.60863676      -0.89319858       0.00000000
Si       1.02998413      -1.62043147      -1.31979828       0.00000000
Si      -0.51896682      -1.25429743       1.93370273       0.00000000
Si       1.51325956       1.85148884       0.06605264       0.00000000
Si       2.31759461      -0.18218818      -2.60333180       0.00000000
Si      -3.28886958      -1.18594459      -0.04705959       0.00000000
Si       2.55919160      -2.61842204       0.18216992       0.00000000
Si       0.77457322       3.17417169      -1.72504174       0.00000000
Si      -2.14364999       0.27510064       3.00414062       0.00000000
Si       0.88739776       2.92232829       2.11231327       0.00000000
