10
Lattice="16.290000149 0.0 0.0 0.0 16.290000149 0.0 0.0 0.0 29.1751946751" Properties=species:S:1:pos:R:3:initial_magmoms:R:1 pbc="T T T"
H        0.90661996      -0.89313184       0.81591349       0.00000000
Si       1.34394130       1.30828249      -1.39544956       0.00000000
Si      -1.14802147       1.42615693       1.46164808       0.00000000
Si      -1.31268079      -1.46556244      -1.28391279       0.00000000
H       -1.12837573      -1.25307568       2.21897778       0.00000000
Si      -2.57865652       2.63779085       0.07594303       0.00000000
Si      -0.49950027      -2.55208753       2.65114994       0.00000000
Si      -2.66274062      -0.13287753      -2.66098198       0.00000000
Si      -0.01150074       2.66387114      -2.70173973       0.00000000
Si       2.73007370       2.66103668      -0.10196731       0.00000000
