10
Lattice="16.290000149 0.0 0.0 0.0 16.290000149 0.0 0.0 0.0 29.1751946751" Properties=species:S:1:pos:R:3:initial_magmoms:R:1 pbc="T T T"
Si       1.36689391       1.34944732      -1.35121413       0.00000000
Si      -1.34385985      -1.36948402      -1.36206439       0.00000000
Si       1.35154873      -1.31952259       1.40682789       0.00000000
Si      -1.36324495       1.37326330       1.34885678       0.00000000
Si       2.67131567       2.64446975       0.12399458       0.00000000
Si      -2.69966027      -2.68468976       0.03588549       0.00000000
Si       0.08478945      -2.74400166      -2.65367651       0.00000000
Si      -0.00426798       2.76159486      -2.65482310       0.00000000
Si       2.77140144      -2.64963368       0.10605183       0.00000000
Si      -2.71749782      -0.01855431      -2.72303470       0.00000000
