10
Lattice="16.290000149 0.0 0.0 0.0 16.290000149 0.0 0.0 0.0 29.1751946751" Properties=species:S:1:pos:R:3:initial_magmoms:R:1 pbc="T T T"
Si      -1.56673963       1.28042659      -1.12371180       0.00000000
Si      -1.39417966      -1.43409016       1.17631467       0.00000000
Si       1.56322099       1.12562272       1.46608271       0.00000000
Si       1.06934077      -1.10910466      -1.86916720       0.00000000
Si       2.09323244      -2.44393985      -0.25111090       0.00000000
Si       0.30722940      -3.03135726       1.19066887       0.00000000
Si       0.05976801       2.30653370      -2.51175086       0.00000000
Si       1.83366758       0.76002625      -3.14981237       0.00000000
Si      -2.53837298       2.73632907       0.38738823       0.00000000
Si      -2.98818876      -2.24606522      -0.38502504       0.00000000
