10
Lattice="16.290000149 0.0 0.0 0.0 16.290000149 0.0 0.0 0.0 29.1751946751" Properties=species:S:1:pos:R:3:initial_magmoms:R:1 pbc="T T T"
Si      -1.35602848      -1.34938216      -1.35404996       0.00000000
Si      -1.34473951       1.33033915       1.38614267       0.00000000
Si       1.34157925       1.35371530      -1.38386701       0.00000000
Si       1.34480467      -1.38131056       1.35404996       0.00000000
Si       0.06972120      -2.70901073      -2.62357938       0.00000000
Si      -2.70656723       2.67108761       0.02275665       0.00000000
Si       2.70596125       2.68359833      -0.00510566       0.00000000
Si       2.69618725      -0.03455109      -2.71370156       0.00000000
Si       2.69669712      -0.02891475       2.71446011       0.00000000
Si      -2.69594615      -0.06019155       2.71504362       0.00000000
