10
Lattice="16.290000149 0.0 0.0 0.0 16.290000149 0.0 0.0 0.0 29.1751946751" Properties=species:S:1:pos:R:3:initial_magmoms:R:1 pbc="T T T"
Si       1.33219621      -1.36584972       1.37167178       0.00000000
Si      -1.33110478      -1.35467478      -1.38377948       0.00000000
Si       1.35104374       1.35088247      -1.37368487       0.00000000
Si      -1.37090125       1.33889303       1.36636189       0.00000000
Si       0.00236205       2.72166969       2.67615308       0.00000000
Si      -2.69444747       2.70443487      -0.02541159       0.00000000
Si       2.70302253       0.00742172       2.70153550       0.00000000
Si       2.70138213      -2.70640271      -0.00813988       0.00000000
Si      -2.69364926      -2.71805006      -0.04530908       0.00000000
Si      -2.69175962      -0.00124944      -2.73470770       0.00000000
