10
Lattice="16.290000149 0.0 0.0 0.0 16.290000149 0.0 0.0 0.0 29.1751946751" Properties=species:S:1:pos:R:3:initial_magmoms:R:1 pbc="T T T"
Si       1.18112275       0.53766774       1.05220340       0.00000000
Si      -1.29655369      -0.55091152      -0.92073997       0.00000000
Si      -0.06845058      -2.40282389      -1.58654709       0.00000000
Si      -0.35583876       1.80928145       2.25063287       0.00000000
Si       2.85059364       1.32310639      -0.39412770       0.00000000
Si      -3.08255673      -1.13832892       0.52103980       0.00000000
Si       2.32104809      -0.96361867       2.43524533       0.00000000
Si      -2.32044536       0.78392368      -2.53879627       0.00000000
Si      -1.82656514       3.01865106       0.79645364       0.00000000
H       -0.33800121       0.69758668      -3.59744738       0.00000000
