10
Lattice="16.290000149 0.0 0.0 0.0 16.290000149 0.0 0.0 0.0 29.1751946751" Properties=species:S:1:pos:R:3:initial_magmoms:R:1 pbc="T T T"
Si       1.34903885       1.35457867      -1.35533367       0.00000000
Si      -1.34840476       1.36402687       1.34710626       0.00000000
Si       1.34206795      -1.35879778       1.36857921       0.00000000
Si      -1.37064061      -1.34799751      -1.35442924       0.00000000
Si      -2.68231142      -0.08268804       2.60773725       0.00000000
Si       2.67079602      -2.70725141      -0.02611180       0.00000000
Si       2.66347530       2.72080469       0.03862796       0.00000000
Si      -0.01863576       2.71145423      -2.69628397       0.00000000
Si       2.68984229       0.01945026       2.71921567       0.00000000
Si      -0.02590110      -2.67833666      -2.74057191       0.00000000
