10
Lattice="16.290000149 0.0 0.0 0.0 16.290000149 0.0 0.0 0.0 29.1751946751" Properties=species:S:1:pos:R:3:initial_magmoms:R:1 pbc="T T T"
Si       1.32058144      -1.48863239      -1.20843073       0.00000000
Si       1.36034533       1.28282932       1.40961995       0.00000000
Si      -1.35060391      -1.39493231       1.30963656       0.00000000
Si      -1.38267892       1.32488195      -1.36470766       0.00000000
Si       2.69436602       2.62258898       0.08142797       0.00000000
Si      -2.69882948       2.64738236       0.03536325       0.00000000
Si      -2.67413384      -0.04353019       2.69464140       0.00000000
Si       0.03013650       2.70227966       2.69563336       0.00000000
Si       0.03373659      -2.75201964       2.64825284       0.00000000
Si      -2.68745906      -2.72000979      -0.09450721       0.00000000
