10
Lattice="16.290000149 0.0 0.0 0.0 16.290000149 0.0 0.0 0.0 29.1751946751" Properties=species:S:1:pos:R:3:initial_magmoms:R:1 pbc="T T T"
Si       1.33553566       1.36306088      -1.36869591       0.00000000
Si      -1.36161595      -1.34314798      -1.37739012       0.00000000
Si      -1.42563565       1.37247650       1.28863917       0.00000000
Si       1.40682070      -1.34182849       1.35457511       0.00000000
Si       0.06739173      -2.72385581       2.66745887       0.00000000
Si       2.70888041      -2.68871828      -0.07603056       0.00000000
Si       2.69527826       2.70833796      -0.00017505       0.00000000
Si      -0.13224222       2.79977373       2.61333889       0.00000000
Si      -2.72645732      -2.69339351      -0.02946695       0.00000000
Si       2.62914086       0.09113603       2.78996552       0.00000000
