10
Lattice="16.290000149 0.0 0.0 0.0 16.290000149 0.0 0.0 0.0 29.1751946751" Properties=species:S:1:pos:R:3:initial_magmoms:R:1 pbc="T T T"
H       -1.18532557       0.51354225      -0.79849590       0.00000000
Si       1.32856354      -1.07360875      -1.62333701       0.00000000
H       -1.75241306       0.63628741       1.53093917       0.00000000
Si       1.29964879       1.67301560       1.17640220       0.00000000
Si      -0.69191776      -1.86046463       1.42080281       0.00000000
H       -0.55884475       2.17302086      -1.90551949       0.00000000
H        1.52324533      -1.07543323       2.54681944       0.00000000
Si      -3.06683688       1.09670797       0.93001768       0.00000000
H       -1.99526438       1.26047134      -2.44969522       0.00000000
Si       2.55735083       0.03078810       2.33316949       0.00000000
