10
Lattice="16.290000149 0.0 0.0 0.0 16.290000149 0.0 0.0 0.0 29.1751946751" Properties=species:S:1:pos:R:3:initial_magmoms:R:1 pbc="T T T"
Si       1.33020883      -1.41945034      -1.28601341       0.00000000
Si      -1.34856766      -1.37393282       1.33666154       0.00000000
Si       1.38570886       1.35024553       1.32446631       0.00000000
Si      -1.29984427       1.34915410      -1.41884807       0.00000000
Si       2.66422952      -0.07969068      -2.61420539       0.00000000
Si       0.01475874       2.69591357       2.66258662       0.00000000
Si      -2.67788054       2.69783579      -0.06891181       0.00000000
Si      -2.70850574      -0.01646919       2.67548205       0.00000000
Si      -2.72896598      -0.05489730      -2.66027011       0.00000000
Si       0.03388320      -2.73315252       2.65850209       0.00000000
