10
Lattice="16.290000149 0.0 0.0 0.0 16.290000149 0.0 0.0 0.0 29.1751946751" Properties=species:S:1:pos:R:3:initial_magmoms:R:1 pbc="T T T"
Si       1.33377634       1.33055092      -1.39714172       0.00000000
Si      -1.19933497       1.47255085       1.42943866       0.00000000
Si       1.47072637      -1.20936961       1.45417923       0.00000000
Si      -1.56322099      -1.12562272      -1.46608271       0.00000000
H        1.82656514      -3.01865106      -0.79645364       0.00000000
Si      -0.16667928       2.64235205      -2.69071150       0.00000000
Si      -2.52661160       0.09044208       2.80463772       0.00000000
Si       2.92433196       2.46216836      -0.05773771       0.00000000
Si      -2.59724504       2.89745346       0.20515997       0.00000000
H        2.02316915       3.20515527       0.91939791       0.00000000
