10
Lattice="16.290000149 0.0 0.0 0.0 16.290000149 0.0 0.0 0.0 29.1751946751" Properties=species:S:1:pos:R:3:initial_magmoms:R:1 pbc="T T T"
Si       1.77899834       1.00926325       1.15186586       0.00000000
Si       1.33331045      -1.30505707      -1.42608352       0.00000000
Si      -1.23360913       1.49231062      -1.36035180       0.00000000
Si      -1.30150585      -1.29580435       1.49528708       0.00000000
Si      -2.29324106       0.47218194       2.76280341       0.00000000
H       -3.15999939      -0.79579909      -1.58663461       0.00000000
Si      -2.50848083       0.02953377      -2.66200311       0.00000000
Si       3.43352478      -0.66725470       1.29852956       0.00000000
Si       2.76025908      -2.52038882      -0.04787649       0.00000000
Si       2.64880289       2.77306302      -0.13680249       0.00000000
