10
Lattice="16.290000149 0.0 0.0 0.0 16.290000149 0.0 0.0 0.0 29.1751946751" Properties=species:S:1:pos:R:3:initial_magmoms:R:1 pbc="T T T"
Si       1.81943012      -0.89937091       1.14180042       0.00000000
Si      -0.87996952       1.77660371       1.28405867       0.00000000
Si       1.11979090       1.43576803      -1.55737189       0.00000000
Si      -1.02846916      -2.14452965      -0.38286608       0.00000000
H       -1.92673235      -0.58578841      -1.88203346       0.00000000
Si       2.60794757       2.44568288      -0.08746723       0.00000000
Si      -0.03518640      -2.53829805      -2.52677609       0.00000000
Si      -1.96224455       0.61462171       2.99072003       0.00000000
Si       0.99935893       3.22686984       1.43871638       0.00000000
H        3.19635867      -0.63483760      -1.76976731       0.00000000
