10
Lattice="16.290000149 0.0 0.0 0.0 16.290000149 0.0 0.0 0.0 29.1751946751" Properties=species:S:1:pos:R:3:initial_magmoms:R:1 pbc="T T T"
Si      -1.34055298      -1.33206589       1.37365569       0.00000000
Si       1.37466424      -1.35941680      -1.31982746       0.00000000
Si       1.35941680       1.30644172       1.39037308       0.00000000
Si      -1.35733168       1.33548679      -1.37578548       0.00000000
Si      -0.06941169       2.74999638       2.51303457       0.00000000
Si       0.00161271      -2.72378576      -2.65147087       0.00000000
Si      -2.78093109       0.03790683       2.60528653       0.00000000
Si       2.72833068       0.01453068      -2.66357857       0.00000000
Si       2.70785414       2.69653259       0.04347104       0.00000000
Si      -2.72160290      -2.68314221       0.03320137       0.00000000
