10
Lattice="16.290000149 0.0 0.0 0.0 16.290000149 0.0 0.0 0.0 29.1751946751" Properties=species:S:1:pos:R:3:initial_magmoms:R:1 pbc="T T T"
Si       1.32525667       1.33610044       1.33671698       0.00000000
Si      -1.41618745       1.34258223      -1.25544655       0.00000000
Si       1.23163804      -1.20182620      -1.59480075       0.00000000
Si      -1.45984465      -1.43723299       1.21386023       0.00000000
Si      -2.45527769      -0.51126051      -2.20780368       0.00000000
Si      -0.70894081      -2.05335338      -2.65883294       0.00000000
Si       2.62410038       2.62650302      -0.13510449       0.00000000
Si       2.64246722      -0.09961221       2.61135206       0.00000000
Si       2.53311131      -2.73168527      -0.27792582       0.00000000
Si      -0.11733687       2.66786333       2.61879173       0.00000000
