10
Lattice="16.290000149 0.0 0.0 0.0 16.290000149 0.0 0.0 0.0 29.1751946751" Properties=species:S:1:pos:R:3:initial_magmoms:R:1 pbc="T T T"
Si       2.29762307       0.04443912      -0.46910796       0.00000000
Si      -0.86679091       2.06988887      -0.80263878       0.00000000
Si      -0.14574663       0.40884642       2.35362130       0.00000000
Si      -0.92973547      -2.07479705      -0.78749685       0.00000000
H       -2.31961457       0.20033442       0.91309607       0.00000000
H       -1.02099205       2.86956498       0.47080012       0.00000000
Si      -3.59561028       0.15003090       0.08347023       0.00000000
Si      -2.98561494      -1.37044839      -1.67836142       0.00000000
Si       3.07234290       2.08963235       0.40926963       0.00000000
Si       2.05962617       0.02120958       3.14914134       0.00000000
