10
Lattice="16.290000149 0.0 0.0 0.0 16.290000149 0.0 0.0 0.0 29.1751946751" Properties=species:S:1:pos:R:3:initial_magmoms:R:1 pbc="T T T"
Si      -1.37466424       1.35941680       1.31982746       0.00000000
Si      -1.37305153      -1.36436896      -1.33164341       0.00000000
Si       1.35366643       1.37394748      -1.34375112       0.00000000
Si       1.35962857      -1.32766759       1.38952700       0.00000000
Si      -0.01524744       2.66585852       2.71020053       0.00000000
Si       2.68449428      -2.69840594       0.01715501       0.00000000
Si      -0.01231524      -2.71564076      -2.68440966       0.00000000
Si      -2.71521722       0.02735091       2.69348315       0.00000000
Si       2.70163136       0.02665044      -2.70982126       0.00000000
Si      -2.73199592       2.69490359      -0.05595802       0.00000000
