10
Lattice="16.290000149 0.0 0.0 0.0 16.290000149 0.0 0.0 0.0 29.1751946751" Properties=species:S:1:pos:R:3:initial_magmoms:R:1 pbc="T T T"
Si       1.29380068      -1.40985064       1.36111036       0.00000000
Si      -1.32856354       1.07360875       1.62333701       0.00000000
Si       1.31867551       1.32572908      -1.44242162       0.00000000
Si      -1.40802616      -1.36197433      -1.31906890       0.00000000
H       -2.51388911       1.58715100       0.82484110       0.00000000
Si       2.71444508       0.03072294       2.52663021       0.00000000
Si      -2.02048130      -0.78685588       3.04413981       0.00000000
Si      -0.34494075      -2.46744632       2.79355407       0.00000000
H       -1.88740829       3.24662961      -0.28218248       0.00000000
Si       2.60590155       2.73737162      -0.12163139       0.00000000
