10
Lattice="16.290000149 0.0 0.0 0.0 16.290000149 0.0 0.0 0.0 29.1751946751" Properties=species:S:1:pos:R:3:initial_magmoms:R:1 pbc="T T T"
Si      -1.37564164      -1.33390666       1.34841915       0.00000000
Si      -1.37156914       1.35026182      -1.34658111       0.00000000
Si       1.29218797      -1.36945144      -1.41044561       0.00000000
Si       1.42227991       1.31979952       1.35034471       0.00000000
Si       0.03476286      -2.69552261       2.61853207       0.00000000
Si      -0.00672777       2.70050735      -2.69450428       0.00000000
Si       2.68216481      -0.01135413      -2.72475896       0.00000000
Si       0.09770742       2.73948395       2.68166719       0.00000000
Si       2.61138476      -2.80893360      -0.13204693       0.00000000
Si      -2.72093501       2.71287146       0.01377069       0.00000000
