10
Lattice="16.290000149 0.0 0.0 0.0 16.290000149 0.0 0.0 0.0 29.1751946751" Properties=species:S:1:pos:R:3:initial_magmoms:R:1 pbc="T T T"
Si      -1.23163804       1.20182620       1.59480075       0.00000000
Si      -1.94057885      -0.85152718      -1.06403219       0.00000000
Si       1.30147327      -1.52985907       1.31687493       0.00000000
Si       1.47689849       1.30780943      -1.37185266       0.00000000
H       -0.86007943      -2.56378538      -1.85210554       0.00000000
Si      -2.64782549       2.54440843       0.33935419       0.00000000
Si       2.64760232      -0.28435824      -2.65669906       0.00000000
Si       2.82465833       2.52093128       0.10891100       0.00000000
Si      -3.68691573       0.69056569      -0.61300293       0.00000000
Si       2.69248942      -0.24309567       2.75074822       0.00000000
