10
Lattice="16.290000149 0.0 0.0 0.0 16.290000149 0.0 0.0 0.0 29.1751946751" Properties=species:S:1:pos:R:3:initial_magmoms:R:1 pbc="T T T"
Si       1.36767461      -1.35687556       1.34095030       0.00000000
Si       1.39835104       1.33478632      -1.33391908       0.00000000
Si      -1.35037585       1.36107838       1.35927232       0.00000000
Si      -1.35775522      -1.34799751      -1.36677034       0.00000000
Si       0.08114049       2.77049897      -2.60855416       0.00000000
Si       2.69869591      -2.70619256      -0.04939360       0.00000000
Si       0.01863576      -2.71145423       2.69628397       0.00000000
Si      -2.71292033      -0.00229689       2.69774273       0.00000000
Si       2.68211106       0.00935046       2.73491192       0.00000000
Si      -2.71103069       2.71450372       0.00834411       0.00000000
