10
Lattice="16.290000149 0.0 0.0 0.0 16.290000149 0.0 0.0 0.0 29.1751946751" Properties=species:S:1:pos:R:3:initial_magmoms:R:1 pbc="T T T"
Si       1.31919679      -1.43948215       1.27839868       0.00000000
Si      -1.34667802      -1.36378252      -1.34944028       0.00000000
Si       1.38997684       1.35809731      -1.31431334       0.00000000
Si      -1.29218797       1.36945144       1.41044561       0.00000000
Si       2.74926333      -0.05084109       2.45579284       0.00000000
Si       0.02119329       2.70096347      -2.66716712       0.00000000
Si      -2.66375711       2.71971326       0.06386450       0.00000000
Si      -2.71402805      -0.00612504      -2.67682411       0.00000000
Si      -0.06794559      -2.77509927       2.61716084       0.00000000
Si       2.74183509      -0.01128897      -2.66541661       0.00000000
