10
Lattice="16.290000149 0.0 0.0 0.0 16.290000149 0.0 0.0 0.0 29.1751946751" Properties=species:S:1:pos:R:3:initial_magmoms:R:1 pbc="T T T"
Si      -1.39357693      -1.34247520      -1.32820074       0.00000000
Si      -1.36023130       1.35464383       1.35247450       0.00000000
Si       1.32954094      -1.36829485       1.37406414       0.00000000
Si       1.36016614       1.34601013      -1.37032972       0.00000000
Si      -0.03684798      -2.73758502      -2.61599383       0.00000000
Si       2.70720254       2.70283682      -0.00828576       0.00000000
Si       2.68947902      -2.72575848       0.03524364       0.00000000
Si      -0.01159848       2.71678106       2.70066025       0.00000000
Si      -2.70327828       2.71484255      -0.00828576       0.00000000
Si       2.70322778      -0.02114442       2.71682330       0.00000000
