10
Lattice="16.290000149 0.0 0.0 0.0 16.290000149 0.0 0.0 0.0 29.1751946751" Properties=species:S:1:pos:R:3:initial_magmoms:R:1 pbc="T T T"
Si       1.36992059       1.36907677       1.32394116       0.00000000
Si      -1.32475168       1.38443824      -1.35857212       0.00000000
Si       1.38059543      -1.34815390      -1.33981247       0.00000000
Si      -1.35104374      -1.35088247       1.37368487       0.00000000
Si      -2.68214852      -2.70555725      -0.01009462       0.00000000
Si      -2.69322572       0.03562623      -2.69584634       0.00000000
Si       0.00394218       2.71841006       2.67478185       0.00000000
Si       2.69824304       0.00956223       2.69788860       0.00000000
Si       2.70488936       0.03490947      -2.70206065       0.00000000
Si      -2.69003288       2.73093707      -0.00805235       0.00000000
