10
Lattice="16.290000149 0.0 0.0 0.0 16.290000149 0.0 0.0 0.0 29.1751946751" Properties=species:S:1:pos:R:3:initial_magmoms:R:1 pbc="T T T"
Si       1.32185206      -1.33506325      -1.40679871       0.00000000
Si       1.39207662       1.37502262       1.31139583       0.00000000
Si      -1.33861447       1.36834372      -1.37435590       0.00000000
Si      -1.35483931      -1.34627077       1.39515781       0.00000000
Si      -0.01617597       2.69013062       2.62585505       0.00000000
Si       2.65171880      -2.69177591      -0.04040764       0.00000000
Si      -2.69759144      -2.67263516      -0.01307049       0.00000000
Si      -2.72403011       2.71098182      -0.03929899       0.00000000
Si       0.03807380      -2.69959511       2.74643613       0.00000000
Si       2.67156002       0.02666673      -2.77540709       0.00000000
