10
Lattice="16.28999089631971 0.0 0.0 0.0 16.28999089631971 0.0 0.0 0.0 34.2284985734139" Properties=species:S:1:pos:R:3:initial_magmoms:R:1 pbc="T T T"
Si      -1.31667183       1.30111594      -1.44178731       0.00000000
Si       1.34372952       1.35723336       1.36391744       0.00000000
Si      -1.37389860      -1.35433718       1.36093956       0.00000000
Si       1.27726632      -1.46585852      -1.38775418       0.00000000
Si      -2.16630936      -0.54620657      -2.65665530       0.00000000
Si      -0.61757019      -2.39565914      -2.55311643       0.00000000
Si       2.68848531       2.70906390      -0.00705107       0.00000000
Si       2.69636967       0.00334009       2.72148891       0.00000000
Si      -0.01752804      -2.71233674       2.72087279       0.00000000
Si       2.69400762      -2.74125149      -0.00653765       0.00000000
