10
Lattice="16.28999089631971 0.0 0.0 0.0 16.28999089631971 0.0 0.0 0.0 34.2284985734139" Properties=species:S:1:pos:R:3:initial_magmoms:R:1 pbc="T T T"
Si      -1.14288589      -1.39540140      -1.65090987       0.00000000
Si      -1.08656890       1.58860080       1.64057285       0.00000000
Si       0.18125394      -1.93323204       1.62814790       0.00000000
Si       1.62891366       1.22222241      -1.53545708       0.00000000
Si      -1.71499069      -3.46795529      -0.34242209       0.00000000
Si      -3.52536355       1.38953700       1.23842200       0.00000000
Si       2.13010809      -3.18426169       1.18557317       0.00000000
Si       3.07038318       0.80293410       2.48139639       0.00000000
Si      -2.48194018       0.02078604      -3.18342329       0.00000000
Si      -0.04036336       3.88034316       1.36729237       0.00000000
