10
Lattice="16.28999089631971 0.0 0.0 0.0 16.28999089631971 0.0 0.0 0.0 34.2284985734139" Properties=species:S:1:pos:R:3:initial_magmoms:R:1 pbc="T T T"
Si      -1.35698958      -1.35415512      -1.35688690       0.00000000
Si       1.36029645      -1.35356868       1.35514124       0.00000000
Si       1.35780408       1.36042677      -1.35709227       0.00000000
Si      -1.35695700       1.36259334       1.36078895       0.00000000
Si       2.71287144      -2.71075700       0.00099263       0.00000000
Si       0.00014661      -2.71152589      -2.71408185       0.00000000
Si      -2.71656927      -2.71201621       0.00000000       0.00000000
Si      -2.71480995       0.00345348      -2.71428723       0.00000000
Si       2.71551042       0.00351864      -2.71418454       0.00000000
Si       0.00024435       2.71849149      -2.71425300       0.00000000
