10
Lattice="16.28999089631971 0.0 0.0 0.0 16.28999089631971 0.0 0.0 0.0 34.2284985734139" Properties=species:S:1:pos:R:3:initial_magmoms:R:1 pbc="T T T"
Si      -1.01428056      -1.67479119      -1.34928817       0.00000000
Si       1.67526360       1.05836130      -1.33258465       0.00000000
Si       0.95752620      -1.61067375       1.67343223       0.00000000
Si      -1.70518833       1.84713939       0.19780660       0.00000000
Si      -2.35116828      -0.24575094      -2.68146208       0.00000000
Si      -0.58008690      -1.07237070       3.44455265       0.00000000
Si       0.38802780       2.48912829      -2.69179909       0.00000000
Si      -2.22229809       0.54667611       3.00913168       0.00000000
Si      -3.66376761       0.96596442      -1.00772179       0.00000000
Si       3.39824061       2.13517917      -0.09330694       0.00000000
