10
Lattice="16.28999089631971 0.0 0.0 0.0 16.28999089631971 0.0 0.0 0.0 34.2284985734139" Properties=species:S:1:pos:R:3:initial_magmoms:R:1 pbc="T T T"
Si      -1.91572029       1.34125344       0.30244318       0.00000000
Si      -0.96181047      -2.18395143       0.24966281       0.00000000
Si       1.65310920       1.92235032      -0.72762983       0.00000000
Si       1.94655726      -0.04419477       1.91022512       0.00000000
Si      -0.44470071      -0.88348815      -2.56166226       0.00000000
Si      -1.10001483       3.57498711       0.38599499       0.00000000
Si       1.11757545       3.55337028       1.15747155       0.00000000
Si       0.68040072      -3.80299824       0.68508378       0.00000000
Si      -3.40215021       0.73552608       2.04327136       0.00000000
Si       1.26048762      -2.73062754      -2.75946887       0.00000000
