10
Lattice="16.28999089631971 0.0 0.0 0.0 16.28999089631971 0.0 0.0 0.0 34.2284985734139" Properties=species:S:1:pos:R:3:initial_magmoms:R:1 pbc="T T T"
Si       0.67261410      -2.05185582      -0.96449117       0.00000000
Si       0.54525888       1.62597006      -1.65765288       0.00000000
Si       1.05494040       0.71868222       2.07510389       0.00000000
Si      -2.34320247      -0.62736048       0.39263533       0.00000000
Si       3.15483543       0.69067971       0.53540247       0.00000000
Si      -0.72089766      -2.13283341      -2.88279422       0.00000000
Si      -2.03348070      -2.69053785       1.55650761       0.00000000
Si      -0.10448406      -3.70107171       0.55751410       0.00000000
Si       1.01149497      -1.14891741       3.48394967       0.00000000
Si      -0.29082537       2.44363032       3.02977147       0.00000000
