10
Lattice="16.28999089631971 0.0 0.0 0.0 16.28999089631971 0.0 0.0 0.0 34.2284985734139" Properties=species:S:1:pos:R:3:initial_magmoms:R:1 pbc="T T T"
Si       1.77896574      -1.21217148      -0.90886983       0.00000000
Si       0.04344543       1.86759963      -1.40884579       0.00000000
Si       0.63452808       0.25195743       2.25367406       0.00000000
Si      -2.19009276      -0.93994929       0.19137164       0.00000000
Si       0.63695529      -3.12034461      -1.41113910       0.00000000
Si       2.43082638       2.50497846      -0.78944653       0.00000000
Si      -1.76635728      -2.60390111       1.77659698       0.00000000
Si       3.43341072      -1.05435396       0.73656347       0.00000000
Si      -0.37836783       2.25761481       2.89792322       0.00000000
Si      -0.51748443      -1.48680459       3.39577701       0.00000000
