10
Lattice="16.28999089631971 0.0 0.0 0.0 16.28999089631971 0.0 0.0 0.0 34.2284985734139" Properties=species:S:1:pos:R:3:initial_magmoms:R:1 pbc="T T T"
Si       1.34576577      -1.72494810      -0.95466759       0.00000000
Si      -2.12496534      -0.86887602       0.72068144       0.00000000
Si      -0.20667123       1.77057639      -1.61777666       0.00000000
Si       1.09721295       0.61600635       2.07619920       0.00000000
Si       0.10987605       3.53180232      -0.07951285       0.00000000
Si       0.92395251      -1.33493292       3.35210142       0.00000000
Si      -3.17244492       1.05244803       1.72391929       0.00000000
Si      -3.22338375      -1.56444273      -1.23938040       0.00000000
Si      -1.98878094       3.08491875       1.06755324       0.00000000
Si       1.30232034      -3.59254773       0.45417820       0.00000000
