10
Lattice="16.28999089631971 0.0 0.0 0.0 16.28999089631971 0.0 0.0 0.0 34.2284985734139" Properties=species:S:1:pos:R:3:initial_magmoms:R:1 pbc="T T T"
Si      -0.90894942      -0.80606178      -1.98754734       0.00000000
Si       2.14822746       0.81749736      -0.49727191       0.00000000
Si       0.92418057      -1.53775971       1.53278725       0.00000000
Si      -1.81613952       1.09190241       1.07508351       0.00000000
Si      -0.90069039       1.28355426      -3.12869189       0.00000000
Si       2.00911086      -2.92692204       0.00058188       0.00000000
Si       3.16112337      -1.18816002      -1.14152107       0.00000000
Si       0.06315633       3.06743958       1.87021198       0.00000000
Si      -3.62797033      -0.49694274       0.52123187       0.00000000
Si      -1.61031537       0.08734698       3.35983707       0.00000000
