10
Lattice="16.28999089631971 0.0 0.0 0.0 16.28999089631971 0.0 0.0 0.0 34.2284985734139" Properties=species:S:1:pos:R:3:initial_magmoms:R:1 pbc="T T T"
Si      -2.17995779       0.07739379       0.88090513       0.00000000
Si       0.23514941       1.90114074      -1.37232396       0.00000000
Si       0.02704792      -2.16634031      -1.04342213       0.00000000
Si       1.36877702       0.42412644       1.96584646       0.00000000
Si      -1.32720887      -1.16989893       2.82744670       0.00000000
Si       1.03375688      -1.75135419       2.81423450       0.00000000
Si      -2.09922455       2.37939885       1.47672094       0.00000000
Si      -0.91005455       3.57119154      -0.17145065       0.00000000
Si      -1.09074323       1.71639585      -3.29490557       0.00000000
Si       2.20984601      -2.45147884      -2.05929031       0.00000000
