10
Lattice="16.28999089631971 0.0 0.0 0.0 16.28999089631971 0.0 0.0 0.0 34.2284985734139" Properties=species:S:1:pos:R:3:initial_magmoms:R:1 pbc="T T T"
Si       1.41063255      -1.28865303       1.27700438       0.00000000
Si       0.77103828       1.76725323      -1.27256255       0.00000000
Si      -1.35112518       1.43695719       1.28670475       0.00000000
Si      -1.02480390      -1.47843153      -1.59679941       0.00000000
Si       0.65715489       0.46402065      -3.36908360       0.00000000
Si      -2.61575046      -2.54554056      -0.07746256       0.00000000
Si       0.01226637      -2.62392804       2.64275989       0.00000000
Si      -2.70065394       0.09440055       2.64844183       0.00000000
Si       2.66587479       2.69705385      -0.10720029       0.00000000
Si       2.73401586       0.09334170       2.64495052       0.00000000
