10
Lattice="16.28999089631971 0.0 0.0 0.0 16.28999089631971 0.0 0.0 0.0 34.2284985734139" Properties=species:S:1:pos:R:3:initial_magmoms:R:1 pbc="T T T"
Si      -0.77103828      -1.76725323       1.27256255       0.00000000
Si       1.89483651       0.92980062       1.16536225       0.00000000
Si      -1.54873917       1.84945257      -0.10353887       0.00000000
Si      -0.11388339      -1.30323258      -2.09652105       0.00000000
Si      -2.12216346      -0.33029604       2.55926730       0.00000000
Si       0.93620259       0.34567380      -3.36075135       0.00000000
Si       0.61757019       2.39565914       2.55311643       0.00000000
Si      -3.42878436       0.95089617       1.07296922       0.00000000
Si      -1.79584218      -3.24568476      -0.32423686       0.00000000
Si      -0.69910164       3.69677508       1.11132912       0.00000000
