10
Lattice="16.28999089631971 0.0 0.0 0.0 16.28999089631971 0.0 0.0 0.0 34.2284985734139" Properties=species:S:1:pos:R:3:initial_magmoms:R:1 pbc="T T T"
Si       1.27936773      -1.92103083       0.42888333       0.00000000
Si      -2.27967147      -0.10536372      -0.73221645       0.00000000
Si       1.24121655       1.12844807      -1.71803199       0.00000000
Si       1.60440210       1.61766446       1.21802180       0.00000000
Si       2.92079700      -0.40218381       1.35079422       0.00000000
Si      -0.16439868       2.86610237      -2.47109361       0.00000000
Si      -3.43458360       1.50969760       0.67457563       0.00000000
Si      -1.20557403      -0.41725206       3.68609581       0.00000000
Si       0.22928175      -3.56993721       1.69311363       0.00000000
Si      -3.30885738      -2.20151205      -0.25127155       0.00000000
