10
Lattice="16.28999089631971 0.0 0.0 0.0 16.28999089631971 0.0 0.0 0.0 34.2284985734139" Properties=species:S:1:pos:R:3:initial_magmoms:R:1 pbc="T T T"
Si      -0.55936602       2.28069774       0.00492891       0.00000000
Si       2.21022720      -0.82621251       0.09522374       0.00000000
Si      -0.92374074      -0.77107086       2.04460628       0.00000000
Si      -0.80967816      -0.30584475      -2.47071709       0.00000000
Si      -3.04158735      -0.46183779      -1.49496474       0.00000000
Si       1.37476197       1.49307624       2.94094847       0.00000000
Si       3.12883659       0.70517781       1.62513579       0.00000000
Si      -0.27188010       2.94607908       2.16402957       0.00000000
Si      -2.06575119      -2.67924399       1.54233701       0.00000000
Si       0.73070424      -0.61325334       3.69003958       0.00000000
