10
Lattice="16.28999089631971 0.0 0.0 0.0 16.28999089631971 0.0 0.0 0.0 34.2284985734139" Properties=species:S:1:pos:R:3:initial_magmoms:R:1 pbc="T T T"
Si      -1.56641382      -1.18833921       1.25552897       0.00000000
Si      -1.41020901       1.12164795      -1.50967116       0.00000000
Si       1.16882379       1.64144556       1.33530195       0.00000000
Si       1.59348780      -1.79286111      -1.60325193       0.00000000
Si       2.11017402       0.57731760      -2.48939403       0.00000000
Si       0.23615613       2.16207396      -2.79635537       0.00000000
Si      -0.15001461      -2.41942338       2.69451639       0.00000000
Si       2.58188355       0.30590991       2.69286657       0.00000000
Si      -2.93568606      -2.52928314      -0.32348188       0.00000000
Si      -2.83563288       0.28802349       2.70542844       0.00000000
