10
Lattice="16.28999089631971 0.0 0.0 0.0 16.28999089631971 0.0 0.0 0.0 34.2284985734139" Properties=species:S:1:pos:R:3:initial_magmoms:R:1 pbc="T T T"
Si       1.83718620       0.94192038      -1.32697117       0.00000000
Si      -0.77781492      -1.99104525      -1.31399857       0.00000000
Si      -1.71690084       1.90097784      -0.19202198       0.00000000
Si       2.35680462       0.89907768       1.66744224       0.00000000
Si      -0.31587939      -2.82207960       1.65416157       0.00000000
Si      -2.01968307      -0.48959595      -2.78647517       0.00000000
Si       0.69383997       2.25007254      -2.83302595       0.00000000
Si       2.44073070       2.79456579       0.08324376       0.00000000
Si      -3.43987785       0.82415997      -1.43129970       0.00000000
Si       1.06150527       0.43290675       3.70855721       0.00000000
