10
Lattice="16.28999089631971 0.0 0.0 0.0 16.28999089631971 0.0 0.0 0.0 34.2284985734139" Properties=species:S:1:pos:R:3:initial_magmoms:R:1 pbc="T T T"
Si       0.28748592       0.66538134       2.15910067       0.00000000
Si       0.74135790       1.51982442      -1.61541489       0.00000000
Si       0.55936602      -2.28069774      -0.00492891       0.00000000
Si      -2.09989503       0.02800251       1.53970141       0.00000000
Si      -3.15483543      -0.69067971      -0.53540247       0.00000000
Si      -0.50301891       0.53177076      -3.34073756       0.00000000
Si       2.99929851       0.80777223      -1.67764234       0.00000000
Si      -2.60957655       0.93529035      -2.19305536       0.00000000
Si      -0.25031214      -2.58654249      -2.47564600       0.00000000
Si       1.93412799      -0.78762150       2.93601956       0.00000000
