10
Lattice="16.28999089631971 0.0 0.0 0.0 16.28999089631971 0.0 0.0 0.0 34.2284985734139" Properties=species:S:1:pos:R:3:initial_magmoms:R:1 pbc="T T T"
Si      -1.33575996      -1.36135530      -1.36615256       0.00000000
Si       1.35443368      -1.35381303       1.35695536       0.00000000
Si      -1.35851227       1.36034532       1.35705804       0.00000000
Si       1.34374744       1.36177884      -1.37157093       0.00000000
Si      -2.62800610       0.02445129      -2.73205183       0.00000000
Si      -0.00227571      -2.71180607       2.71438991       0.00000000
Si       2.71275904       0.00294849       2.71408185       0.00000000
Si       2.71495819      -2.71189078      -0.00598999       0.00000000
Si       2.71388305       2.71595025      -0.00222485       0.00000000
Si      -2.71698208       0.00288333       2.71387648       0.00000000
