10
Lattice="16.28999089631971 0.0 0.0 0.0 16.28999089631971 0.0 0.0 0.0 34.2284985734139" Properties=species:S:1:pos:R:3:initial_magmoms:R:1 pbc="T T T"
Si       1.35366642       1.35457866       1.35661307       0.00000000
Si      -1.35755973       1.35695700      -1.35729764       0.00000000
Si       1.35731538      -1.35762489      -1.35692113       0.00000000
Si      -1.35847197      -1.35785295       1.35692113       0.00000000
Si       2.71327869       0.00171045       2.71319191       0.00000000
Si      -0.00086337      -2.71389771      -2.71408185       0.00000000
Si       2.71425609       2.71430496       0.00003423       0.00000000
Si       0.00177561       2.71593396       2.71315768       0.00000000
Si       2.71433754      -2.71484253       0.00030806       0.00000000
Si       2.71510317      -0.00063531      -2.71438991       0.00000000
