10
Lattice="16.28999089631971 0.0 0.0 0.0 16.28999089631971 0.0 0.0 0.0 34.2284985734139" Properties=species:S:1:pos:R:3:initial_magmoms:R:1 pbc="T T T"
Si       1.34218197       1.34123715       1.36564940       0.00000000
Si       1.35189081      -1.36135530      -1.35654461       0.00000000
Si      -1.36109466       1.35475785      -1.35558622       0.00000000
Si      -1.37891592      -1.34905635       1.37050985       0.00000000
Si      -0.14485068       2.51550180       2.78195700       0.00000000
Si      -0.01332522      -2.76785019       2.62505348       0.00000000
Si       2.64204252      -0.06551838       2.77271530       0.00000000
Si       2.71248048      -0.00162900      -2.71312346       0.00000000
Si       2.71150308      -2.71422351       0.00003423       0.00000000
Si      -0.00234576       2.71402803      -2.71281540       0.00000000
