10
Lattice="16.28999089631971 0.0 0.0 0.0 16.28999089631971 0.0 0.0 0.0 34.2284985734139" Properties=species:S:1:pos:R:3:initial_magmoms:R:1 pbc="T T T"
Si      -1.34860023      -1.32831918       1.37093428       0.00000000
Si      -1.41674130       1.27539297      -1.38121653       0.00000000
Si       1.36260963       1.39004199       1.37014703       0.00000000
Si       1.35876519      -1.38017025      -1.46223201       0.00000000
Si       1.99764270       0.53364411      -2.74718224       0.00000000
Si       0.30082743       2.28877758      -2.72346188       0.00000000
Si      -2.67198354      -2.71031391       0.00298815       0.00000000
Si       2.73191445      -2.67178806       0.00245761       0.00000000
Si       0.00232947      -2.68438023       2.72696547       0.00000000
Si      -2.69400762       2.74125149       0.00653765       0.00000000
