10
Lattice="16.28999089631971 0.0 0.0 0.0 16.28999089631971 0.0 0.0 0.0 34.2284985734139" Properties=species:S:1:pos:R:3:initial_magmoms:R:1 pbc="T T T"
Si       0.20211003       1.84005324       1.44947504       0.00000000
Si      -1.34493498      -1.40440977       1.54346655       0.00000000
Si       0.69831972       0.15133410      -2.46274185       0.00000000
Si      -2.04564933       1.51822800      -0.35690075       0.00000000
Si       1.99037736      -1.66449591      -0.13068448       0.00000000
Si       0.71990397      -1.63867626       2.70340256       0.00000000
Si       1.03094523       0.62125173       3.34005299       0.00000000
Si       2.48231907      -1.51726689      -2.46291299       0.00000000
Si      -1.91094732       2.98281207       1.49766879       0.00000000
Si       1.22447043      -3.50534736       1.19974377       0.00000000
