10
Lattice="16.28999089631971 0.0 0.0 0.0 16.28999089631971 0.0 0.0 0.0 34.2284985734139" Properties=species:S:1:pos:R:3:initial_magmoms:R:1 pbc="T T T"
Si       1.35417428      -1.35575703       1.35835873       0.00000000
Si      -1.35752715      -1.35694677      -1.35698958       0.00000000
Si       1.35785414       1.35791974      -1.35746878       0.00000000
Si      -1.35690813       1.35834328       1.36273998       0.00000000
Si       2.71294216       2.71342693      -0.00041074       0.00000000
Si      -0.00066789      -2.71365892      -2.71449260       0.00000000
Si       2.71451088       0.00113216      -2.71452682       0.00000000
Si       2.71461514      -2.71455487       0.00020537       0.00000000
Si      -2.71515204       0.00025250      -2.71476642       0.00000000
Si      -0.00019548       2.71582156      -2.71504025       0.00000000
