10
Lattice="16.28999089631971 0.0 0.0 0.0 16.28999089631971 0.0 0.0 0.0 34.2284985734139" Properties=species:S:1:pos:R:3:initial_magmoms:R:1 pbc="T T T"
Si       1.35690813      -1.35834328      -1.36273998       0.00000000
Si      -1.35917244       1.35720135      -1.36202118       0.00000000
Si       1.34174214       1.35806472       1.39655775       0.00000000
Si      -1.34452773      -1.36622927       1.38981473       0.00000000
Si       2.71108241      -2.71410031      -0.00438125       0.00000000
Si      -2.71275741       2.71494027      -0.00177988       0.00000000
Si      -2.71274112      -2.71717654      -0.00092417       0.00000000
Si       2.72016936       2.71295289      -0.00191680       0.00000000
Si       2.71476227      -0.00042354      -2.72020876       0.00000000
Si      -0.00061902      -2.71529004      -2.71972956       0.00000000
