10
Lattice="16.28999089631971 0.0 0.0 0.0 16.28999089631971 0.0 0.0 0.0 34.2284985734139" Properties=species:S:1:pos:R:3:initial_magmoms:R:1 pbc="T T T"
Si      -2.29638501       0.37338048      -0.06349390       0.00000000
Si       0.60942519       2.23664697       0.36781965       0.00000000
Si       1.08470223      -1.49681644       1.44683944       0.00000000
Si       1.26301257      -0.46851019      -1.93507502       0.00000000
Si      -2.04965667       1.91133567      -1.83605192       0.00000000
Si       2.97039095       1.65519171       0.35460744       0.00000000
Si       2.73356041      -2.35811761       0.08334644       0.00000000
Si       3.60825848      -0.38725567      -0.84797730       0.00000000
Si      -2.86757757       1.00764304       2.20243397       0.00000000
Si       0.43222257      -2.63604130      -2.64617248       0.00000000
