10
Lattice="16.28999089631971 0.0 0.0 0.0 16.28999089631971 0.0 0.0 0.0 34.2284985734139" Properties=species:S:1:pos:R:3:initial_magmoms:R:1 pbc="T T T"
Si       1.34968093      -1.35786924      -1.36123392       0.00000000
Si      -1.36383138       1.35971001      -1.36027552       0.00000000
Si       1.35330057       1.34047152       1.39498324       0.00000000
Si      -1.37842722      -1.35488817       1.39847455       0.00000000
Si      -0.36430956       2.43991620       2.72168059       0.00000000
Si       2.70908306      -2.71077003      -0.00598999       0.00000000
Si       2.70878984       0.00167787      -2.71767585       0.00000000
Si       2.70908306       2.72104902      -0.00219063       0.00000000
Si      -0.00540709      -2.71337643      -2.71829196       0.00000000
Si      -2.72016936      -2.71295289       0.00191680       0.00000000
