10
Lattice="16.28999089631971 0.0 0.0 0.0 16.28999089631971 0.0 0.0 0.0 34.2284985734139" Properties=species:S:1:pos:R:3:initial_magmoms:R:1 pbc="T T T"
Si       1.35583366      -1.35806472      -1.36119969       0.00000000
Si      -1.36068741       1.35716877      -1.36109701       0.00000000
Si      -1.36319607      -1.35747828       1.36345877       0.00000000
Si       1.36532584       1.34324082       1.38464623       0.00000000
Si       2.71397006      -2.70980892      -0.00236177       0.00000000
Si      -2.71743264      -2.71208952      -0.00530542       0.00000000
Si       2.71478456       2.71684620      -0.00301211       0.00000000
Si      -0.00140783      -2.71370223      -2.71839465       0.00000000
Si       2.71405151       0.00110772      -2.71829196       0.00000000
Si      -2.71538010       2.71726974       0.00078726       0.00000000
