10
Lattice="16.28999089631971 0.0 0.0 0.0 16.28999089631971 0.0 0.0 0.0 34.2284985734139" Properties=species:S:1:pos:R:3:initial_magmoms:R:1 pbc="T T T"
Si      -0.40275396      -1.87234002      -1.34805594       0.00000000
Si       0.03171663       1.63724274      -1.71207623       0.00000000
Si       1.76595003      -1.14057693       1.13002028       0.00000000
Si      -1.55553210       0.61763535       1.74928263       0.00000000
Si       2.93734668       0.81722043       1.60607051       0.00000000
Si      -1.56885732      -1.48050036       2.84172000       0.00000000
Si       0.57678003      -2.33236962       2.77819187       0.00000000
Si      -0.88187544      -3.66966459       0.00701685       0.00000000
Si      -0.66847644       2.69516421       2.62039840       0.00000000
Si      -1.57936437       3.25692486      -1.25283220       0.00000000
