10
Lattice="16.28999089631971 0.0 0.0 0.0 16.28999089631971 0.0 0.0 0.0 34.2284985734139" Properties=species:S:1:pos:R:3:initial_magmoms:R:1 pbc="T T T"
Si       2.22812991       0.27621324       0.76610268       0.00000000
Si       0.49194171       0.14722902      -2.33222851       0.00000000
Si      -0.76590693      -1.84085145       1.33042825       0.00000000
Si      -1.99037736       1.66449591       0.13068448       0.00000000
Si      -1.27047339       0.02581965       2.83408704       0.00000000
Si      -1.29205764       1.81583001      -2.33205737       0.00000000
Si       2.32404543       2.44494981       1.61555181       0.00000000
Si      -3.33531234       0.26008614       1.67415103       0.00000000
Si      -3.14817282      -1.98913932       1.22219768       0.00000000
Si      -0.37092330      -1.67646906      -3.55072951       0.00000000
