10
Lattice="16.28999089631971 0.0 0.0 0.0 16.28999089631971 0.0 0.0 0.0 34.2284985734139" Properties=species:S:1:pos:R:3:initial_magmoms:R:1 pbc="T T T"
Si       1.35834755       1.35671265       1.35733187       0.00000000
Si      -1.35892449       1.35534429      -1.35880370       0.00000000
Si      -1.35700227      -1.35870003       1.35743456       0.00000000
Si       1.35841434      -1.35985662      -1.36054935       0.00000000
Si      -2.70115533       0.01233153      -2.72471323       0.00000000
Si       2.71617281       2.71231758      -0.00013691       0.00000000
Si      -2.71389411       2.71463076      -0.00092417       0.00000000
Si      -2.71457829      -0.00143352       2.71449260       0.00000000
Si       0.00068313       2.71446786       2.71473220       0.00000000
Si      -2.71373121      -2.71637379       0.00006846       0.00000000
