10
Lattice="16.28999089631971 0.0 0.0 0.0 16.28999089631971 0.0 0.0 0.0 34.2284985734139" Properties=species:S:1:pos:R:3:initial_magmoms:R:1 pbc="T T T"
Si      -2.16446044       0.10596645      -0.99902775       0.00000000
Si       1.04747958      -1.92132405      -1.00323785       0.00000000
Si      -0.83181627      -0.09078417       2.27886625       0.00000000
Si       1.18366398       2.03247072      -0.65636606       0.00000000
Si      -0.64501884       2.94920676      -1.81287921       0.00000000
Si      -1.67792702       1.16884008      -3.03237284       0.00000000
Si       3.17244492      -1.05244803      -1.72391929       0.00000000
Si      -3.49540136       1.41366249       0.44260896       0.00000000
Si       0.13203045      -2.11297590       3.20053755       0.00000000
Si       1.42640127       3.38841774       1.18471745       0.00000000
