10
Lattice="16.28999089631971 0.0 0.0 0.0 16.28999089631971 0.0 0.0 0.0 34.2284985734139" Properties=species:S:1:pos:R:3:initial_magmoms:R:1 pbc="T T T"
Si      -1.35743473      -1.35687555      -1.35743456       0.00000000
Si       1.35732190       1.35777488      -1.35743456       0.00000000
Si       1.35854365      -1.35643572       1.35777684       0.00000000
Si      -1.36044086       1.35879783       1.35815335       0.00000000
Si       2.70852853      -0.02717172       2.71473220       0.00000000
Si       2.71382278      -2.71419093      -0.00023960       0.00000000
Si       2.71317118       2.71497189      -0.00075303       0.00000000
Si      -2.71461514       2.71455487      -0.00020537       0.00000000
Si       0.00022969      -2.71463076      -2.71483488       0.00000000
Si       2.71497937       0.00034209      -2.71456105       0.00000000
