10
Lattice="16.28999089631971 0.0 0.0 0.0 16.28999089631971 0.0 0.0 0.0 34.2284985734139" Properties=species:S:1:pos:R:3:initial_magmoms:R:1 pbc="T T T"
Si       0.17138709       2.32510495      -0.28276178       0.00000000
Si      -0.84971898       0.13799259       2.28721801       0.00000000
Si       2.60138268      -0.56853729       0.28864909       0.00000000
Si      -1.88421054       0.28794204      -1.92357424       0.00000000
Si       1.49076306       2.11553247      -2.19771044       0.00000000
Si       1.42058574       2.77670773       1.59830063       0.00000000
Si      -0.39024324       1.36998900      -3.34744635       0.00000000
Si      -3.15904544       0.08394237       1.88359533       0.00000000
Si       3.12033321       0.27323217      -2.02999070       0.00000000
Si       3.27927474       1.48543478       1.13802976       0.00000000
