10
Lattice="16.28999089631971 0.0 0.0 0.0 16.28999089631971 0.0 0.0 0.0 34.2284985734139" Properties=species:S:1:pos:R:3:initial_magmoms:R:1 pbc="T T T"
Si      -0.14448043      -1.32828660      -1.90776066       0.00000000
Si      -1.92271312       1.19047320      -0.81758237       0.00000000
Si       1.88198647       1.49380929      -0.43726931       0.00000000
Si       0.12482652      -1.80415008       1.73548853       0.00000000
Si       2.86399654       0.67724046       1.56605737       0.00000000
Si      -1.50630814       0.33381468      -2.96843397       0.00000000
Si       1.40468947      -0.40768983       3.14559534       0.00000000
Si       0.60607874       3.11311674      -1.75811358       0.00000000
Si       1.42739773      -3.41655057       0.27102140       0.00000000
Si      -1.27197649       3.56306283      -0.39041047       0.00000000
