10
Lattice="16.28999089631971 0.0 0.0 0.0 16.28999089631971 0.0 0.0 0.0 34.450931932916035" Properties=species:S:1:pos:R:3:initial_magmoms:R:1 pbc="T T T"
Si       1.62228852       1.61590351      -0.57057665       0.00000000
Si       0.43140807      -1.42074864      -1.89845412       0.00000000
Si       0.82106487      -1.03029363       2.03556890       0.00000000
Si      -1.93869408       1.39305794      -0.54556526       0.00000000
Si       2.05226307       2.30914727       1.60627560       0.00000000
Si      -0.02018331       2.10254120       2.84740557       0.00000000
Si       0.01676241       0.23417773      -3.58868668       0.00000000
Si      -2.17929412       0.71299768      -2.83655352       0.00000000
Si      -3.51716480       0.63327768       0.98433258       0.00000000
Si       3.07534023      -1.48486608       1.54336816       0.00000000
