10
Lattice="16.28999089631971 0.0 0.0 0.0 16.28999089631971 0.0 0.0 0.0 34.450931932916035" Properties=species:S:1:pos:R:3:initial_magmoms:R:1 pbc="T T T"
Si       1.31553479      -1.36450157       1.38661633       0.00000000
Si      -1.34876169      -1.36007069      -1.36515339       0.00000000
Si       1.36800488       1.35080427      -1.36594576       0.00000000
Si      -1.33785276       1.31711655       1.55883664       0.00000000
Si      -2.20773876      -0.68818571       2.54764784       0.00000000
Si       2.27576513       0.46288524       2.60287271       0.00000000
Si      -0.39680974      -2.29814663       2.86669810       0.00000000
Si       0.49179836       2.24349627       3.02761849       0.00000000
Si      -2.70047868       2.70737031       0.03079915       0.00000000
Si      -2.70526794      -0.00775567      -2.72496689       0.00000000
