10
Lattice="16.28999089631971 0.0 0.0 0.0 16.28999089631971 0.0 0.0 0.0 34.450931932916035" Properties=species:S:1:pos:R:3:initial_magmoms:R:1 pbc="T T T"
Si      -1.52423901       0.07365686      -1.79579028       0.00000000
Si       2.19115161       0.93932375      -0.22275985       0.00000000
Si       0.02303406      -2.30432868       0.90740360       0.00000000
Si      -1.06919415       1.50445969       1.71097204       0.00000000
Si       3.24003213      -0.10228002       1.57609657       0.00000000
Si      -0.20334807       0.23459229      -3.69307307       0.00000000
Si       1.70637750       3.23087389      -0.67217251       0.00000000
Si      -2.23257708      -2.11870413      -2.19514571       0.00000000
Si       2.02901724      -3.22785765      -0.09188069       0.00000000
Si      -1.62206046      -3.48773202      -0.37210472       0.00000000
