10
Lattice="16.28999089631971 0.0 0.0 0.0 16.28999089631971 0.0 0.0 0.0 34.450931932916035" Properties=species:S:1:pos:R:3:initial_magmoms:R:1 pbc="T T T"
Si       1.35738054      -1.35741312       1.35709187       0.00000000
Si      -1.35744570       1.35731538       1.35747083       0.00000000
Si      -1.35754344      -1.35935163      -1.35636840       0.00000000
Si       1.35739683       1.35840681      -1.35753973       0.00000000
Si      -0.00110772       2.71511946      -2.71153101       0.00000000
Si       2.71358820      -0.00048870       2.71377033       0.00000000
Si       0.00141723      -2.71433754       2.71473495       0.00000000
Si       0.00130320      -2.71621089      -2.71328801       0.00000000
Si      -2.71425609       0.00074934       2.71535507       0.00000000
Si       2.71516833       2.71484253       0.00020671       0.00000000
