10
Lattice="16.28999089631971 0.0 0.0 0.0 16.28999089631971 0.0 0.0 0.0 34.450931932916035" Properties=species:S:1:pos:R:3:initial_magmoms:R:1 pbc="T T T"
Si       1.35596331       1.35692442      -1.35764308       0.00000000
Si       1.35316143      -1.35837423       1.35943453       0.00000000
Si      -1.35931905      -1.35786924      -1.35709187       0.00000000
Si      -1.36317978       1.35503478       1.35757418       0.00000000
Si       2.71217097       2.71384884      -0.00096463       0.00000000
Si       2.71391400      -0.00061902      -2.71449380       0.00000000
Si       2.71358820      -2.71506082       0.00186035       0.00000000
Si      -0.00141723       2.71433754      -2.71473495       0.00000000
Si      -2.71653669      -2.71340249       0.00013780       0.00000000
Si      -0.00156384      -2.71594210      -2.71473495       0.00000000
