10
Lattice="16.28999089631971 0.0 0.0 0.0 16.28999089631971 0.0 0.0 0.0 34.450931932916035" Properties=species:S:1:pos:R:3:initial_magmoms:R:1 pbc="T T T"
Si       2.01083760      -0.94822461      -0.75857549       0.00000000
Si      -0.20212632      -0.58663548       2.27328046       0.00000000
Si       0.57937014       2.35890603      -0.05739528       0.00000000
Si      -1.55264877      -1.41346701      -1.24578085       0.00000000
Si       2.09375370      -2.81344590       0.76012579       0.00000000
Si       1.39722588      -1.04611122      -3.14120328       0.00000000
Si      -2.65624740       2.32046163       1.11627972       0.00000000
Si      -0.49674726       3.17479068       1.84405606       0.00000000
Si      -1.81130139       1.52832780      -2.88612844       0.00000000
Si      -1.01371041      -0.66249801      -3.53287614       0.00000000
