10
Lattice="16.28999089631971 0.0 0.0 0.0 16.28999089631971 0.0 0.0 0.0 34.450931932916035" Properties=species:S:1:pos:R:3:initial_magmoms:R:1 pbc="T T T"
Si      -1.55890413      -1.67866821      -0.34984941       0.00000000
Si       2.04244020      -1.02009609      -0.48396696       0.00000000
Si      -0.61393752       1.68684579      -1.65006276       0.00000000
Si       0.10730223       0.05988204       2.49004585       0.00000000
Si       3.18445065       0.35469846       1.03900624       0.00000000
Si      -3.45330081      -0.55550529       0.53877843       0.00000000
Si      -0.57344058      -3.38309091       0.94154450       0.00000000
Si       1.74327435      -3.29264883       0.29875865       0.00000000
Si       0.58274217       3.52083915       1.38920016       0.00000000
Si      -0.81829557       3.71203488      -0.48403586       0.00000000
