10
Lattice="16.28999089631971 0.0 0.0 0.0 16.28999089631971 0.0 0.0 0.0 34.450931932916035" Properties=species:S:1:pos:R:3:initial_magmoms:R:1 pbc="T T T"
Si       1.58157981       1.12449870       1.32191745       0.00000000
Si      -1.27940031       1.40194998      -1.40728690       0.00000000
Si      -1.76410926      -0.93584421       1.32443237       0.00000000
Si       1.44028035      -1.33621983      -1.38572061       0.00000000
Si      -3.26647080       0.98639208       1.39343762       0.00000000
Si      -2.60400537      -2.69602758       0.02580376       0.00000000
Si      -2.64275928       0.02412549      -2.76396536       0.00000000
Si      -2.54529621       2.87350713       0.00451307       0.00000000
Si       0.07547157      -2.69527824      -2.77009763       0.00000000
Si       2.76773616       2.73792546       0.07830701       0.00000000
