10
Lattice="16.28999089631971 0.0 0.0 0.0 16.28999089631971 0.0 0.0 0.0 34.450931932916035" Properties=species:S:1:pos:R:3:initial_magmoms:R:1 pbc="T T T"
Si      -1.07611740       0.81588465       1.90145135       0.00000000
Si      -1.00204677       0.88648551      -1.97872483       0.00000000
Si       2.35636479       0.44518941      -0.06232177       0.00000000
Si      -0.57937014      -2.35890603       0.05739528       0.00000000
Si      -3.23561754      -0.03844440       1.17367500       0.00000000
Si      -0.34507107      -0.90106506       3.54176449       0.00000000
Si       1.43146746      -3.30713064      -0.70118021       0.00000000
Si       3.21012369      -1.72789659      -0.58425368       0.00000000
Si       2.53570140       2.06630505      -1.74080656       0.00000000
Si      -2.39067153      -0.83057823      -2.82873315       0.00000000
