10
Lattice="16.28999089631971 0.0 0.0 0.0 16.28999089631971 0.0 0.0 0.0 34.450931932916035" Properties=species:S:1:pos:R:3:initial_magmoms:R:1 pbc="T T T"
Si       2.30454630      -0.11275938       0.67833923       0.00000000
Si      -0.43642539      -2.04447645      -1.21108874       0.00000000
Si      -1.11733110      -0.27359055       2.14188454       0.00000000
Si      -0.73104633       1.71694971      -1.64031314       0.00000000
Si       2.37925224      -2.50787808       1.13498659       0.00000000
Si       0.34507107       0.90106506      -3.54176449       0.00000000
Si      -3.35059236      -0.58523454       1.40422077       0.00000000
Si      -3.51482814      -0.90036459      -0.88115198       0.00000000
Si      -0.23429907      -1.45784097      -3.48436920       0.00000000
Si      -2.89054647       0.86262066      -2.36808948       0.00000000
