10
Lattice="16.28999089631971 0.0 0.0 0.0 16.28999089631971 0.0 0.0 0.0 34.450931932916035" Properties=species:S:1:pos:R:3:initial_magmoms:R:1 pbc="T T T"
Si      -0.69242274      -1.29660255       1.77732457       0.00000000
Si      -1.40103774       0.19119573      -1.87323602       0.00000000
Si      -0.52484751       2.15902773       0.82799416       0.00000000
Si       2.17991151      -0.79197093      -0.50525765       0.00000000
Si       3.36971682       0.13382235       1.35936563       0.00000000
Si      -0.47543994      -3.46095711       1.10084569       0.00000000
Si      -0.51798942       2.20810950      -2.88178762       0.00000000
Si      -1.19667969      -1.83399336      -3.03926291       0.00000000
Si      -2.60240895       1.73685609       2.08600509       0.00000000
Si       2.64862368      -0.05491359      -2.70622557       0.00000000
