10
Lattice="16.28999089631971 0.0 0.0 0.0 16.28999089631971 0.0 0.0 0.0 34.450931932916035" Properties=species:S:1:pos:R:3:initial_magmoms:R:1 pbc="T T T"
Si      -1.46069172      -0.09951561      -1.86355530       0.00000000
Si       1.73222973       1.62403155      -0.12161186       0.00000000
Si      -1.95611949       0.81011799       1.14456985       0.00000000
Si       1.01807613      -2.04693624       1.03855837       0.00000000
Si       2.04879330      -0.38890746       2.45593738       0.00000000
Si       0.95125455      -2.53356741      -1.85497702       0.00000000
Si      -0.72607788       2.37097692       2.38406581       0.00000000
Si      -3.35901429       0.79224786      -0.76146937       0.00000000
Si      -1.24370892      -2.26387017      -2.54003418       0.00000000
Si       2.60144784       1.33090929      -2.28151424       0.00000000
