10
Lattice="16.28999089631971 0.0 0.0 0.0 16.28999089631971 0.0 0.0 0.0 34.450931932916035" Properties=species:S:1:pos:R:3:initial_magmoms:R:1 pbc="T T T"
Si       1.32035663      -1.36700286       1.36287618       0.00000000
Si       1.63633376       1.12925864      -1.27253856       0.00000000
Si      -1.22229734      -1.29973202      -1.54641849       0.00000000
Si      -1.38436071       1.34081687       1.37184377       0.00000000
Si      -0.13461730       2.01263276      -2.55937981       0.00000000
Si       2.67019490      -2.59602720      -0.16952969       0.00000000
Si      -1.87925091       0.46273700      -3.22180270       0.00000000
Si      -2.78719035       2.56991366      -0.00513319       0.00000000
Si      -2.65212996      -2.70800466      -0.08931754       0.00000000
Si       2.68286852      -0.00725231       2.72165615       0.00000000
