10
Lattice="16.28999089631971 0.0 0.0 0.0 16.28999089631971 0.0 0.0 0.0 34.450931932916035" Properties=species:S:1:pos:R:3:initial_magmoms:R:1 pbc="T T T"
Si      -1.24884027       0.49446666       1.92691060       0.00000000
Si       0.27456795      -1.40509395       1.87564759       0.00000000
Si       1.76575455       1.55193201      -0.27123234       0.00000000
Si      -0.88940142      -0.90613125      -2.15060063       0.00000000
Si      -1.11405681      -3.12215769       1.02563927       0.00000000
Si       0.87508251       2.66444127      -2.16165938       0.00000000
Si       0.61296012      -2.82836754      -2.21960588       0.00000000
Si       3.65756112       0.27934092      -0.21810897       0.00000000
Si      -0.16822683       0.98098380      -3.53952518       0.00000000
Si       2.04817428       2.96679996       1.53375635       0.00000000
