10
Lattice="16.28999089631971 0.0 0.0 0.0 16.28999089631971 0.0 0.0 0.0 34.450931932916035" Properties=species:S:1:pos:R:3:initial_magmoms:R:1 pbc="T T T"
Si       1.24884027      -0.49446666      -1.92691060       0.00000000
Si      -2.37744405      -0.06970491      -0.18138426       0.00000000
Si       0.46594287       1.41025788       1.88146980       0.00000000
Si       1.52340822      -1.89956061      -0.05126302       0.00000000
Si      -2.93985304       0.38411820       2.09961322       0.00000000
Si      -1.67808177       2.29268718       2.33739369       0.00000000
Si       1.51348761       3.27651100       0.88504494       0.00000000
Si       0.13478346      -3.61662435      -0.90127133       0.00000000
Si       3.01459482       1.05746535      -2.19814294       0.00000000
Si      -3.17830280      -2.03152590      -1.07008099       0.00000000
