10
Lattice="16.28999089631971 0.0 0.0 0.0 16.28999089631971 0.0 0.0 0.0 34.450931932916035" Properties=species:S:1:pos:R:3:initial_magmoms:R:1 pbc="T T T"
Si       1.26350127      -1.41510483       1.33959079       0.00000000
Si       1.37186235       1.33173845      -1.35392238       0.00000000
Si      -1.34325711      -1.38463604      -1.35392238       0.00000000
Si      -1.34532594       1.27099304       1.52400673       0.00000000
Si      -0.42217164      -2.23879239       2.81984481       0.00000000
Si      -2.69671176       2.68281476       0.02545925       0.00000000
Si      -2.20113738      -0.46727702       3.08432476       0.00000000
Si       0.01339038       2.69118782      -2.71390813       0.00000000
Si      -2.70166392      -0.02361236      -2.71190998       0.00000000
Si       0.09842418       2.37661163       2.99974767       0.00000000
