10
Lattice="16.28999089631971 0.0 0.0 0.0 16.28999089631971 0.0 0.0 0.0 34.450931932916035" Properties=species:S:1:pos:R:3:initial_magmoms:R:1 pbc="T T T"
Si       1.58454459      -1.68904561      -0.20749808       0.00000000
Si      -1.42410438       0.46273048       1.88946242       0.00000000
Si       1.36629117       1.77050146      -1.07149348       0.00000000
Si      -1.56959037      -1.92896473      -0.04678439       0.00000000
Si      -2.84539059      -0.78977245      -1.65481699       0.00000000
Si       2.07291879       1.13982270       2.56242730       0.00000000
Si       3.17666403       1.46498251       0.44955046       0.00000000
Si      -0.08503380       2.05539727       3.01945362       0.00000000
Si      -2.21190507      -1.81294735       2.28299563       0.00000000
Si      -2.00391435       1.21091389      -2.91789221       0.00000000
