10
Lattice="16.28999089631971 0.0 0.0 0.0 16.28999089631971 0.0 0.0 0.0 34.450931932916035" Properties=species:S:1:pos:R:3:initial_magmoms:R:1 pbc="T T T"
Si      -1.16778123       1.44674748       1.44414942       0.00000000
Si      -1.36555812      -1.34265438      -1.37855481       0.00000000
Si       1.35174420       1.36702422      -1.37862371       0.00000000
Si       1.31167080      -1.45787355       1.56193722       0.00000000
Si      -2.39645448      -0.01185912       2.84196232       0.00000000
Si       0.65205612       2.22042474       2.92326656       0.00000000
Si       2.28548700       0.37921491       2.92430009       0.00000000
Si       2.71016730      -2.70259245       0.01650201       0.00000000
Si      -2.71958292      -2.70925506       0.00075792       0.00000000
Si      -0.00948078      -2.70088200      -2.73860946       0.00000000
