10
Lattice="16.28999089631971 0.0 0.0 0.0 16.28999089631971 0.0 0.0 0.0 34.450931932916035" Properties=species:S:1:pos:R:3:initial_magmoms:R:1 pbc="T T T"
Si      -1.47518982       1.21849200      -1.39519462       0.00000000
Si       1.23377202      -1.51905879      -1.37721122       0.00000000
Si      -1.66244337      -1.02483648       1.45885998       0.00000000
Si       1.55690046       1.17833715       1.46399317       0.00000000
Si       0.02226843      -0.68344695       3.38704527       0.00000000
Si      -0.12849552       2.55852369      -2.75890107       0.00000000
Si       2.58779682      -0.15245811      -2.75652396       0.00000000
Si      -2.80797246       2.55777435       0.03700032       0.00000000
Si       2.78557371       2.63694375       0.06618028       0.00000000
Si      -2.77708662      -2.72746728      -0.00048231       0.00000000
