10
Lattice="16.28999089631971 0.0 0.0 0.0 16.28999089631971 0.0 0.0 0.0 34.450931932916035" Properties=species:S:1:pos:R:3:initial_magmoms:R:1 pbc="T T T"
Si       2.19172176      -0.83124612      -0.21063312       0.00000000
Si      -0.84020562      -0.47265435       2.17299375       0.00000000
Si      -1.25779977      -1.17568188      -1.68420365       0.00000000
Si      -0.07470594       2.39511870      -0.45664736       0.00000000
Si      -2.37925224       2.50787808      -1.13498659       0.00000000
Si      -2.81567763       0.46340163      -2.34607532       0.00000000
Si       1.87745508       2.76152967      -1.82906990       0.00000000
Si       0.30180483       0.90214020       3.69596695       0.00000000
Si       2.66551641      -1.05466347      -2.54203234       0.00000000
Si      -2.34010737      -3.06229194      -0.66176832       0.00000000
