10
Lattice="16.28999089631971 0.0 0.0 0.0 16.28999089631971 0.0 0.0 0.0 34.450931932916035" Properties=species:S:1:pos:R:3:initial_magmoms:R:1 pbc="T T T"
Si      -1.87861167      -0.90142344       1.13081802       0.00000000
Si      -0.00390960       2.30684319       0.55438471       0.00000000
Si       1.70647524      -1.25113716       1.09078602       0.00000000
Si       0.25370046      -0.34753086      -2.37280926       0.00000000
Si       0.06369390       1.43236341       2.86294295       0.00000000
Si       0.79788420      -3.34954165       0.57560649       0.00000000
Si      -3.52166994      -0.30255417      -0.48754986       0.00000000
Si      -2.13483708       0.65531412       2.93969966       0.00000000
Si       1.68259410      -0.33598125       3.29003139       0.00000000
Si      -1.39383756      -3.19297358       1.58023068       0.00000000
