10
Lattice="16.28999089631971 0.0 0.0 0.0 16.28999089631971 0.0 0.0 0.0 34.450931932916035" Properties=species:S:1:pos:R:3:initial_magmoms:R:1 pbc="T T T"
Si       2.04503031      -1.10586294      -0.38281897       0.00000000
Si      -0.44427717       1.95893766      -1.28109307       0.00000000
Si      -1.35045729      -1.71141111      -1.00469309       0.00000000
Si      -0.25370046       0.34753086       2.37280926       0.00000000
Si       1.40585958      -3.10478766       0.74145337       0.00000000
Si       1.28058948       3.39841980      -0.58053298       0.00000000
Si       2.22237954      -1.17810909      -2.71208223       0.00000000
Si      -3.52517229      -1.29153636      -0.08313015       0.00000000
Si       1.45277478      -0.90360630       3.46359528       0.00000000
Si      -0.25761006       2.65437405       2.92719397       0.00000000
