10
Lattice="16.28999089631971 0.0 0.0 0.0 16.28999089631971 0.0 0.0 0.0 34.450931932916035" Properties=species:S:1:pos:R:3:initial_magmoms:R:1 pbc="T T T"
Si      -2.19496347       0.26969724      -0.68505716       0.00000000
Si       0.82784151      -2.12496534       0.55090516       0.00000000
Si       0.88218495       0.56451366      -2.13609678       0.00000000
Si       0.06682158       0.48663117       2.89353539       0.00000000
Si      -0.95125455       2.53356741       1.85497702       0.00000000
Si       3.02637249      -1.34791605       0.47414844       0.00000000
Si      -2.41194627       2.43405180      -0.00857829       0.00000000
Si       2.95876899      -0.47343627      -1.83440980       0.00000000
Si       1.91857104      -1.39631364       2.78463593       0.00000000
Si      -3.50705781      -1.13375142       0.68571173       0.00000000
