10
Lattice="16.28999089631971 0.0 0.0 0.0 16.28999089631971 0.0 0.0 0.0 34.450931932916035" Properties=species:S:1:pos:R:3:initial_magmoms:R:1 pbc="T T T"
Si       1.77095106      -0.88337412       1.28684125       0.00000000
Si       1.41587793       0.48575151      -1.87016989       0.00000000
Si      -1.14412620       1.71074322       1.24105787       0.00000000
Si      -1.74463361      -1.54989576      -0.66242289       0.00000000
Si       0.13461730      -2.01263276       2.55937981       0.00000000
Si      -2.65651523       2.39402727      -0.36152828       0.00000000
Si       0.43316739       2.53614123      -2.52339437       0.00000000
Si      -1.08768004      -3.31236478       1.01296132       0.00000000
Si       1.21942053      -1.45354041      -3.17954719       0.00000000
Si      -2.65257305       0.55728090       2.55424661       0.00000000
