10
Lattice="16.28999089631971 0.0 0.0 0.0 16.28999089631971 0.0 0.0 0.0 34.450931932916035" Properties=species:S:1:pos:R:3:initial_magmoms:R:1 pbc="T T T"
Si      -1.51238903       0.68328405      -1.60258615       0.00000000
Si      -1.50844685      -1.15346232       1.31318875       0.00000000
Si       1.11630125       1.53336141       1.36310818       0.00000000
Si       1.14412620      -1.71074322      -1.24105787       0.00000000
Si      -2.62102127      -2.42421264      -0.30626576       0.00000000
Si      -0.10561721      -2.38255911       2.69016571       0.00000000
Si      -2.43497318       2.75501367      -0.36242081       0.00000000
Si       2.59963770       0.32856930       2.69193649       0.00000000
Si       2.92504674       2.42481537       0.20632068       0.00000000
Si      -0.60050741      -3.26063898      -1.90348076       0.00000000
