10
Lattice="16.28999089631971 0.0 0.0 0.0 16.28999089631971 0.0 0.0 0.0 34.450931932916035" Properties=species:S:1:pos:R:3:initial_magmoms:R:1 pbc="T T T"
Si      -0.30108807       1.04736555       2.00401183       0.00000000
Si      -1.58157981      -1.12449870      -1.32191745       0.00000000
Si       1.18615635       1.61342676      -1.24361044       0.00000000
Si      -0.14129946      -2.46071853      -2.70763806       0.00000000
Si       2.57105070       0.25694217      -2.69899087       0.00000000
Si      -2.19289464       2.31995664       1.95088846       0.00000000
Si      -3.34568907      -2.06034291       0.00251492       0.00000000
Si      -2.86098012       0.27745128      -2.72920435       0.00000000
Si      -0.15411969       2.96824977      -2.71039413       0.00000000
Si       1.78999407       1.37122704       3.35762415       0.00000000
