10
Lattice="16.28999089631971 0.0 0.0 0.0 16.28999089631971 0.0 0.0 0.0 34.450931932916035" Properties=species:S:1:pos:R:3:initial_magmoms:R:1 pbc="T T T"
Si       0.17933661       1.62111564      -1.67848479       0.00000000
Si       0.85375890      -2.17308600      -0.52193191       0.00000000
Si      -2.35636479      -0.44518941       0.06232177       0.00000000
Si       1.17415062       1.00121598       1.87592319       0.00000000
Si       1.55527146      -1.09260288       2.91000294       0.00000000
Si      -0.30900501       3.67399773      -0.65026170       0.00000000
Si       2.25101736      -2.70176166       1.31127210       0.00000000
Si      -3.35841156       0.44129610      -1.91640306       0.00000000
Si      -0.92489733      -3.75232005      -0.63885844       0.00000000
Si      -3.43248219       0.37069524       1.96377312       0.00000000
