10
Lattice="16.28999089631971 0.0 0.0 0.0 16.28999089631971 0.0 0.0 0.0 34.450931932916035" Properties=species:S:1:pos:R:3:initial_magmoms:R:1 pbc="T T T"
Si      -1.48333645       1.20479211      -1.32882831       0.00000000
Si      -1.34847480      -1.34576577       1.35338150       0.00000000
Si       1.36467846       1.36938627       1.34693917       0.00000000
Si       1.39432626      -1.26001521      -1.42170807       0.00000000
Si       0.32540904       2.09624607      -2.48561580       0.00000000
Si       2.28446073       0.61105419      -2.53811905       0.00000000
Si      -2.59963770      -0.32856930      -2.69193649       0.00000000
Si      -2.69507507       2.71425609       0.00196715       0.00000000
Si       0.00415395      -2.70195714       2.70830296       0.00000000
Si       2.72823291      -2.68485264      -0.01833824       0.00000000
