10
Lattice="16.28999089631971 0.0 0.0 0.0 16.28999089631971 0.0 0.0 0.0 34.450931932916035" Properties=species:S:1:pos:R:3:initial_magmoms:R:1 pbc="T T T"
Si       0.38112084      -2.09381886       1.03407975       0.00000000
Si      -0.89805141       1.64952540       1.48673080       0.00000000
Si      -1.17415062      -1.00121598      -1.87592319       0.00000000
Si       1.70714313       1.56895506      -0.78672192       0.00000000
Si      -2.12547033       2.78879913      -0.19640487       0.00000000
Si      -0.99481401       0.61989966      -3.55440799       0.00000000
Si      -1.57104018      -2.46022983       2.40650229       0.00000000
Si       1.03448016       2.76296319       2.39819961       0.00000000
Si       2.11682034      -1.99036107       2.59419108       0.00000000
Si       1.07686674      -3.70297764      -0.56465109       0.00000000
