10
Lattice="16.28999089631971 0.0 0.0 0.0 16.28999089631971 0.0 0.0 0.0 34.450931932916035" Properties=species:S:1:pos:R:3:initial_magmoms:R:1 pbc="T T T"
Si       1.80874549       0.89145396      -1.15678749       0.00000000
Si       1.48333645      -1.20479211       1.32882831       0.00000000
Si      -1.11630125      -1.53336141      -1.36310818       0.00000000
Si      -1.21173862       1.50946398       1.33079546       0.00000000
Si       0.13486165      -2.55055788       2.68220981       0.00000000
Si      -2.58436519       0.16734717       2.67686991       0.00000000
Si      -2.48535457       2.78940186      -0.11995477       0.00000000
Si      -2.62474810      -2.68682373      -0.04991943       0.00000000
Si       2.87766271      -2.46480732      -0.09287976       0.00000000
Si       1.49830696       0.67458519      -3.48493906       0.00000000
