10
Lattice="16.28999089631971 0.0 0.0 0.0 16.28999089631971 0.0 0.0 0.0 34.450931932916035" Properties=species:S:1:pos:R:3:initial_magmoms:R:1 pbc="T T T"
Si       1.35632169       1.35529542      -1.35664401       0.00000000
Si      -1.35944937       1.35509994       1.35736748       0.00000000
Si      -1.35878148      -1.35954711      -1.35650620       0.00000000
Si       1.35664749      -1.35988920       1.36432657       0.00000000
Si      -2.71459818       2.71116099       0.00072347       0.00000000
Si      -0.00125433       2.71254564      -2.71383923       0.00000000
Si       2.71448415       2.71231758       0.00124023       0.00000000
Si       2.71409319      -0.00306252      -2.71370142       0.00000000
Si      -2.71570590      -0.00281817      -2.71321911       0.00000000
Si      -2.71311579      -2.71608057       0.00110243       0.00000000
