10
Lattice="16.28999089631971 0.0 0.0 0.0 16.28999089631971 0.0 0.0 0.0 34.450931932916035" Properties=species:S:1:pos:R:3:initial_magmoms:R:1 pbc="T T T"
Si       1.22741892      -1.13927373       1.68313567       0.00000000
Si       0.64231470      -0.11601738      -2.32978002       0.00000000
Si       0.78780069       2.27567783      -0.39353322       0.00000000
Si      -2.27074455      -0.94006332       0.25579831       0.00000000
Si       2.12547033      -2.78879913       0.19640487       0.00000000
Si      -1.28112705       3.16501735      -1.01423600       0.00000000
Si       2.21190507       1.81294735      -2.28299563       0.00000000
Si      -3.46455720      -0.03890052      -1.66318857       0.00000000
Si      -3.11285610      -0.21098808       2.38338570       0.00000000
Si      -2.41701246       1.82735260      -2.65961343       0.00000000
