10
Lattice="16.28999089631971 0.0 0.0 0.0 16.28999089631971 0.0 0.0 0.0 34.450931932916035" Properties=species:S:1:pos:R:3:initial_magmoms:R:1 pbc="T T T"
Si      -0.03616380       1.34374581      -1.90017666       0.00000000
Si       1.95691770      -0.82617993      -1.00445193       0.00000000
Si       0.76031946       1.79536977       1.45810206       0.00000000
Si      -1.70714313      -1.56895506       0.78672192       0.00000000
Si      -2.60519454       0.08057034       2.27345272       0.00000000
Si      -0.67266297       1.19400813       3.18492154       0.00000000
Si       2.20538907      -2.70207117       0.25703855       0.00000000
Si       3.42093258       0.81505386      -0.22620495       0.00000000
Si       2.19642957       2.28245706      -1.63821163       0.00000000
Si      -3.19029876       1.10382669      -1.73946298       0.00000000
