10
Lattice="16.28999089631971 0.0 0.0 0.0 16.28999089631971 0.0 0.0 0.0 34.450931932916035" Properties=species:S:1:pos:R:3:initial_magmoms:R:1 pbc="T T T"
Si      -1.80874549      -0.89145396       1.15678749       0.00000000
Si      -0.31043853      -0.21686877      -2.32815157       0.00000000
Si       1.00994742       1.91407500       1.12839991       0.00000000
Si       1.95905169      -1.48519188      -0.05250325       0.00000000
Si      -0.32540904      -2.09624607       2.48561580       0.00000000
Si       1.88185338      -1.27897677      -2.46430173       0.00000000
Si      -0.87713505       1.98426861      -2.70394254       0.00000000
Si       2.39190957       0.65304981       2.50362676       0.00000000
Si       1.06891722      -3.35626128       1.06390773       0.00000000
Si      -2.92504674      -2.42481537      -0.20632068       0.00000000
