10
Lattice="16.28999089631971 0.0 0.0 0.0 16.28999089631971 0.0 0.0 0.0 34.450931932916035" Properties=species:S:1:pos:R:3:initial_magmoms:R:1 pbc="T T T"
Si      -0.74251449       2.19017325       0.54515185       0.00000000
Si       1.57472172      -1.76324589       0.32797306       0.00000000
Si       1.20164814       0.91052955      -1.89418220       0.00000000
Si      -1.95352938      -0.93540438      -1.12282540       0.00000000
Si      -0.70436331      -0.10329489      -2.91727210       0.00000000
Si      -1.71004275      -3.22048413      -0.87167797       0.00000000
Si       2.32819938      -1.51259166       2.51997412       0.00000000
Si       0.61229223      -3.65207139      -0.72598489       0.00000000
Si       0.40032675       3.07520895      -2.25832875       0.00000000
Si      -1.79139501       3.23177703      -1.25370456       0.00000000
