10
Lattice="16.28999089631971 0.0 0.0 0.0 16.28999089631971 0.0 0.0 0.0 34.450931932916035" Properties=species:S:1:pos:R:3:initial_magmoms:R:1 pbc="T T T"
Si       1.04599719      -1.97358237      -0.83443649       0.00000000
Si      -0.33425451       0.94190409      -2.24620202       0.00000000
Si      -1.41231042      -1.22663700       1.67124118       0.00000000
Si       1.28873448       1.44221886       1.60383789       0.00000000
Si       1.67172867       0.01837512      -3.24548631       0.00000000
Si      -0.68623254      -3.59761392      -0.71282463       0.00000000
Si      -2.64235203      -2.78749593       0.43174522       0.00000000
Si       2.81437443      -2.80756521       0.36564297       0.00000000
Si      -0.02743236      -2.62485657       3.05407480       0.00000000
Si      -1.97934903      -0.24149925      -3.52571034       0.00000000
