10
Lattice="16.28999089631971 0.0 0.0 0.0 16.28999089631971 0.0 0.0 0.0 34.450931932916035" Properties=species:S:1:pos:R:3:initial_magmoms:R:1 pbc="T T T"
Si       1.50844685       1.15346232      -1.31318875       0.00000000
Si       1.40282964      -1.22909679       1.37697696       0.00000000
Si      -1.11257442      -1.27075032      -1.61945451       0.00000000
Si      -1.31999499       1.48812408       1.34962290       0.00000000
Si      -0.00394218       1.83674637      -2.91577490       0.00000000
Si      -2.61048879      -2.49241724      -0.02498727       0.00000000
Si       2.65257305      -0.55728090      -2.55424661       0.00000000
Si       0.04315221      -2.57776218       2.72802958       0.00000000
Si       2.62474810       2.68682373       0.04991943       0.00000000
Si       2.78719035      -2.56991366       0.00513319       0.00000000
