10
Lattice="16.28999089631971 0.0 0.0 0.0 16.28999089631971 0.0 0.0 0.0 34.450931932916035" Properties=species:S:1:pos:R:3:initial_magmoms:R:1 pbc="T T T"
Si       1.35744570       1.35618893       1.35647175       0.00000000
Si      -1.35700587      -1.35770945       1.35764308       0.00000000
Si       1.35821133      -1.35736736      -1.35688516       0.00000000
Si      -1.35760860       1.35777231      -1.35719522       0.00000000
Si       0.00053757      -2.71437323      -2.71487276       0.00000000
Si      -2.71472850       2.71461854       0.00003445       0.00000000
Si       2.71493504       2.71461854       0.00048231       0.00000000
Si      -2.71479366      -0.00070317      -2.71483831       0.00000000
Si      -2.71516833      -2.71473161      -0.00024116       0.00000000
Si       2.71684795      -0.00013531      -2.71339137       0.00000000
