10
Lattice="16.28999089631971 0.0 0.0 0.0 16.28999089631971 0.0 0.0 0.0 34.450931932916035" Properties=species:S:1:pos:R:3:initial_magmoms:R:1 pbc="T T T"
Si       1.35650625      -1.35231502       1.35981349       0.00000000
Si      -1.35744570      -1.35618893      -1.35647175       0.00000000
Si       1.35748934       1.35842962      -1.35598944       0.00000000
Si      -1.35638685       1.35738706       1.36064032       0.00000000
Si       0.00076563      -2.71355629      -2.71335692       0.00000000
Si       2.71484972      -2.71339339       0.00120578       0.00000000
Si       2.71491162       0.00109795      -2.71339137       0.00000000
Si      -2.71445157      -2.71389838       0.00117133       0.00000000
Si      -2.71505430       0.00158339      -2.71366697       0.00000000
Si      -0.00003258       2.71616854      -2.71387368       0.00000000
