10
Lattice="16.28999089631971 0.0 0.0 0.0 16.28999089631971 0.0 0.0 0.0 34.450931932916035" Properties=species:S:1:pos:R:3:initial_magmoms:R:1 pbc="T T T"
Si       1.74463361       1.54989576       0.66242289       0.00000000
Si       0.65695356      -1.76246902       1.67538421       0.00000000
Si       0.52263225      -0.14423166      -2.55849989       0.00000000
Si      -2.02051386       0.83642634       1.59721500       0.00000000
Si       1.98433281      -2.89022786       0.07293266       0.00000000
Si      -2.73025287       2.42396829      -0.13897514       0.00000000
Si      -0.50841090       1.86944040      -3.14440722       0.00000000
Si       1.87925091      -0.46273700       3.22180270       0.00000000
Si       0.60050741       3.26063898       1.90348076       0.00000000
Si      -2.70637173       1.50881238      -2.33822051       0.00000000
