10
Lattice="16.28999089631971 0.0 0.0 0.0 16.28999089631971 0.0 0.0 0.0 34.450931932916035" Properties=species:S:1:pos:R:3:initial_magmoms:R:1 pbc="T T T"
Si      -1.35622395      -1.34734590       1.38167951       0.00000000
Si       1.36037790       1.36604682       1.37716644       0.00000000
Si       1.31999499      -1.48812408      -1.34962290       0.00000000
Si      -1.31927823       1.41178914      -1.47121064       0.00000000
Si      -2.70790299      -2.68428249       0.00717613       0.00000000
Si      -2.69553888       2.72578941       0.01686374       0.00000000
Si       2.72282463      -2.71722087       0.02735406       0.00000000
Si       2.73300447       2.70816363       0.03109198       0.00000000
Si       0.00498474      -2.70620883       2.73684213       0.00000000
Si      -2.70917361       0.00741195       2.73766895       0.00000000
