10
Lattice="16.28999089631971 0.0 0.0 0.0 16.28999089631971 0.0 0.0 0.0 34.450931932916035" Properties=species:S:1:pos:R:3:initial_magmoms:R:1 pbc="T T T"
Si      -0.93753837      -1.89675873       1.08878373       0.00000000
Si       0.18604809      -1.08082521      -2.12082678       0.00000000
Si       1.85271776       1.12293486       1.08785011       0.00000000
Si      -1.85608260       1.63243719      -0.13294760       0.00000000
Si       0.33900583       2.28058371       2.52778962       0.00000000
Si      -2.39011767      -0.46996650       2.51900119       0.00000000
Si      -0.65459736       0.75549762      -3.40674298       0.00000000
Si      -2.60956026       1.38178296      -2.32494866       0.00000000
Si      -0.94187151       3.63908826       1.07463472       0.00000000
Si       3.03450839      -0.43868970       2.51288959       0.00000000
