10
Lattice="16.28999089631971 0.0 0.0 0.0 16.28999089631971 0.0 0.0 0.0 34.450931932916035" Properties=species:S:1:pos:R:3:initial_magmoms:R:1 pbc="T T T"
Si      -1.34218197      -1.35321030      -1.36615936       0.00000000
Si       1.35516510      -1.35509994       1.35423244       0.00000000
Si      -1.35555606       1.35760860       1.35540377       0.00000000
Si       1.36016613       1.33589403      -1.37246388       0.00000000
Si      -2.69669547       0.01058850      -2.67861313       0.00000000
Si       0.00029322      -2.71365336       2.71201333       0.00000000
Si       2.71464705       0.00086337       2.71184107       0.00000000
Si      -2.71463076       0.00125433       2.71201333       0.00000000
Si       2.71373481      -2.71295289      -0.00585666       0.00000000
Si       2.71518462       2.71182888      -0.00847493       0.00000000
