10
Lattice="16.28999089631971 0.0 0.0 0.0 16.28999089631971 0.0 0.0 0.0 34.450931932916035" Properties=species:S:1:pos:R:3:initial_magmoms:R:1 pbc="T T T"
Si       2.12862149      -0.74653812       0.64774678       0.00000000
Si      -1.62329850      -1.07518887      -1.31426934       0.00000000
Si       1.08678085       1.66724892      -1.36374090       0.00000000
Si      -2.06417106       0.11039733       2.21554067       0.00000000
Si       1.82822574      -3.07802808       0.85793204       0.00000000
Si      -0.32444793      -2.37358332      -2.82535696       0.00000000
Si       2.40948063       0.33526449      -2.82287649       0.00000000
Si      -2.38084866      -2.88611559       0.10094129       0.00000000
Si      -0.44804016       0.90549594       3.67130006       0.00000000
Si       2.29555163      -0.68747058       2.96770829       0.00000000
