10
Lattice="16.28999089631971 0.0 0.0 0.0 16.28999089631971 0.0 0.0 0.0 34.450931932916035" Properties=species:S:1:pos:R:3:initial_magmoms:R:1 pbc="T T T"
Si      -0.14643081      -0.19075590      -2.28530385       0.00000000
Si      -1.94214267      -1.04800086       0.83857060       0.00000000
Si       0.99505836      -2.19988305       0.00465088       0.00000000
Si       1.08424611       2.00756331       0.85304000       0.00000000
Si       2.11713378      -0.48992175      -2.63002006       0.00000000
Si       2.06451056      -1.80134820       2.08955354       0.00000000
Si      -0.63053703      -2.44444482      -2.36460994       0.00000000
Si       0.14027319       2.13729687       3.05900331       0.00000000
Si      -2.88016974       0.23495067       2.51815783       0.00000000
Si       3.41118206       1.69570755       0.43480545       0.00000000
