10
Lattice="16.28999089631971 0.0 0.0 0.0 16.28999089631971 0.0 0.0 0.0 34.450931932916035" Properties=species:S:1:pos:R:3:initial_magmoms:R:1 pbc="T T T"
Si       1.63451158      -0.32602806      -1.61182220       0.00000000
Si      -0.80472600      -2.13578190       0.51590299       0.00000000
Si       1.06945220       0.39853485       2.08490266       0.00000000
Si      -0.99505836       2.19988305      -0.00465088       0.00000000
Si      -1.62559539      -0.24456177      -2.36926081       0.00000000
Si      -1.14148917       2.00912715      -2.28995473       0.00000000
Si      -2.93720103       1.15188219       0.83391972       0.00000000
Si      -2.63376720      -1.10486925       1.59280528       0.00000000
Si       1.12207542       1.70996130      -2.63467094       0.00000000
Si       2.47721120      -1.48038633       2.19724722       0.00000000
