10
Lattice="16.28999089631971 0.0 0.0 0.0 16.28999089631971 0.0 0.0 0.0 34.450931932916035" Properties=species:S:1:pos:R:3:initial_magmoms:R:1 pbc="T T T"
Si      -0.04238658      -1.16993151       2.12259200       0.00000000
Si      -1.61091810       1.78753428      -0.73952412       0.00000000
Si       2.14711974       1.21375161       0.51855572       0.00000000
Si       0.83307060      -1.23448878      -2.05778977       0.00000000
Si       1.30647429       3.05007444      -0.76736049       0.00000000
Si       0.88019757      -3.24166113       0.88242666       0.00000000
Si      -1.18848582       1.27984014      -3.04391379       0.00000000
Si      -0.64848861       3.67635978       0.31443383       0.00000000
Si       0.96457977       2.20191930      -2.88526716       0.00000000
Si      -0.96876630      -1.03122216      -3.48133752       0.00000000
