10
Lattice="16.28999089631971 0.0 0.0 0.0 16.28999089631971 0.0 0.0 0.0 34.450931932916035" Properties=species:S:1:pos:R:3:initial_magmoms:R:1 pbc="T T T"
Si      -0.18604809       1.08082521       2.12082678       0.00000000
Si      -0.84064545       1.83632283      -1.28591620       0.00000000
Si       2.29337855      -0.72961281      -0.53116477       0.00000000
Si      -2.14711974      -1.21375161      -0.51855572       0.00000000
Si      -1.12358646      -0.81593352       3.20961050       0.00000000
Si      -2.18950632      -2.38368312       1.60403629       0.00000000
Si       0.18365527      -0.90538191      -3.53532216       0.00000000
Si      -2.79560835       2.46260817      -0.20412189       0.00000000
Si      -1.18253997       0.98816769      -3.40382288       0.00000000
Si      -1.31404914      -2.44824039      -2.57634548       0.00000000
