10
Lattice="16.28999089631971 0.0 0.0 0.0 16.28999089631971 0.0 0.0 0.0 34.450931932916035" Properties=species:S:1:pos:R:3:initial_magmoms:R:1 pbc="T T T"
Si      -0.75347766      -0.25065423      -2.19200106       0.00000000
Si      -1.87207938      -0.73296855       1.26610071       0.00000000
Si       1.85608260      -1.63243719       0.13294760       0.00000000
Si       0.91421109       2.00665107       1.20758232       0.00000000
Si      -0.53403507      -2.10240369       2.65194878       0.00000000
Si       2.19508843       0.64814652       2.66073722       0.00000000
Si       1.20148524      -0.87693957      -3.27379538       0.00000000
Si      -2.32819938       1.51259166      -2.51997412       0.00000000
Si       0.91854423      -3.52919592       1.22173133       0.00000000
Si      -3.13908300      -2.24875305      -0.03167024       0.00000000
