10
Lattice="16.28999089631971 0.0 0.0 0.0 16.28999089631971 0.0 0.0 0.0 34.450931932916035" Properties=species:S:1:pos:R:3:initial_magmoms:R:1 pbc="T T T"
Si      -1.35412254       1.35456237       1.35819430       0.00000000
Si       1.35823537       1.35614250      -1.35674736       0.00000000
Si      -1.35625653      -1.35917244      -1.35647175       0.00000000
Si       1.35712618      -1.36032903       1.36188055       0.00000000
Si      -2.71399545       2.71389771       0.00072347       0.00000000
Si       0.00122175       2.71423980      -2.71380478       0.00000000
Si      -2.71438641      -0.00148239      -2.71421819       0.00000000
Si       2.71530584       2.71440270       0.00075792       0.00000000
Si       2.71588250      -0.00084708      -2.71439044       0.00000000
Si      -0.00001629      -2.71630863      -2.71435599       0.00000000
