10
Lattice="16.28999089631971 0.0 0.0 0.0 16.28999089631971 0.0 0.0 0.0 34.450931932916035" Properties=species:S:1:pos:R:3:initial_magmoms:R:1 pbc="T T T"
Si      -1.34991972      -1.34382726      -1.37920938       0.00000000
Si       1.36116519       1.37709144      -1.37803805       0.00000000
Si      -1.46008899       1.33995024       1.31630194       0.00000000
Si       1.41896653      -1.36907676       1.45999686       0.00000000
Si       0.50218812       2.04897642       2.53476318       0.00000000
Si       2.31311714       0.43901550       2.85381344       0.00000000
Si      -2.70541062      -2.69781948       0.01350477       0.00000000
Si       0.00420282      -2.69838963      -2.73740368       0.00000000
Si       2.74166631      -2.70106119       0.00086127       0.00000000
Si      -2.70979263       0.01550808      -2.73668021       0.00000000
