10
Lattice="16.28999089631971 0.0 0.0 0.0 16.28999089631971 0.0 0.0 0.0 34.450931932916035" Properties=species:S:1:pos:R:3:initial_magmoms:R:1 pbc="T T T"
Si       0.39661263      -0.59191344      -2.23321401       0.00000000
Si      -2.26400049       0.38840247      -0.54890701       0.00000000
Si       0.41174604      -1.91071926       1.38837333       0.00000000
Si       1.37229145       1.96292938       0.31405487       0.00000000
Si       2.73868199      -2.22257502       0.97013879       0.00000000
Si      -0.82789038       0.87548976      -3.64522069       0.00000000
Si      -3.69698292      -0.21295917       1.17791247       0.00000000
Si       3.56834798       1.48410943      -0.43807830       0.00000000
Si      -3.02431995      -1.40696730      -2.00700906       0.00000000
Si      -1.06740225      -2.23314723      -3.01146100       0.00000000
