10
Lattice="16.28999089631971 0.0 0.0 0.0 16.28999089631971 0.0 0.0 0.0 34.450931932916035" Properties=species:S:1:pos:R:3:initial_magmoms:R:1 pbc="T T T"
Si      -0.64267308      -2.22720138      -0.07420735       0.00000000
Si      -1.24230798       0.94415211       1.87509637       0.00000000
Si      -0.78698619       1.24317135      -1.94978603       0.00000000
Si       2.37776985      -0.32485518       0.46663813       0.00000000
Si      -2.89898469       1.96287984       0.41434159       0.00000000
Si      -1.25851653       3.21342146      -0.76839402       0.00000000
Si       0.66370347       1.95797655       2.89818627       0.00000000
Si       0.49677984      -3.11231853       1.76199390       0.00000000
Si       2.86212042       1.30181535       2.07687559       0.00000000
Si       3.32174277      -0.45458874      -1.73932517       0.00000000
