10
Lattice="16.28999089631971 0.0 0.0 0.0 16.28999089631971 0.0 0.0 0.0 34.450931932916035" Properties=species:S:1:pos:R:3:initial_magmoms:R:1 pbc="T T T"
Si      -0.56669652       2.20113738      -0.37579098       0.00000000
Si       0.31043853       0.21686877       2.32815157       0.00000000
Si      -1.03731462      -1.38254859      -1.64262135       0.00000000
Si       2.19229191      -1.06210800      -0.13615016       0.00000000
Si      -0.39413655       1.99401003      -2.69468450       0.00000000
Si       2.26949022      -1.26832311       2.27564832       0.00000000
Si      -0.05621679      -0.27404667      -3.45818648       0.00000000
Si      -0.05460408      -3.43293831      -0.98939687       0.00000000
Si       1.38908088       3.39745869       0.27164575       0.00000000
Si       3.50438625       0.34134066      -1.50691906       0.00000000
