10
Lattice="16.28999089631971 0.0 0.0 0.0 16.28999089631971 0.0 0.0 0.0 34.450931932916035" Properties=species:S:1:pos:R:3:initial_magmoms:R:1 pbc="T T T"
Si      -1.35729594      -1.35617508       1.35660956       0.00000000
Si      -1.35801270       1.35708732      -1.35753973       0.00000000
Si       1.35803271       1.35716877       1.35757418       0.00000000
Si       1.35750654      -1.35778779      -1.35753973       0.00000000
Si      -2.71117413      -0.00405621       2.71700872       0.00000000
Si      -2.71425294       2.71422351       0.00034451       0.00000000
Si      -2.71459503      -2.71505430       0.00006890       0.00000000
Si       2.71482029       2.71495656       0.00048231       0.00000000
Si      -0.00069743       2.71489140      -2.71532062       0.00000000
Si       2.71540673      -2.71497285       0.00027561       0.00000000
