10
Lattice="16.28999089631971 0.0 0.0 0.0 16.28999089631971 0.0 0.0 0.0 34.450931932916035" Properties=species:S:1:pos:R:3:initial_magmoms:R:1 pbc="T T T"
Si       0.80085875       1.96182099       0.88869674       0.00000000
Si      -0.74737543      -1.38047976       1.69760507       0.00000000
Si      -0.16693015      -0.05906754      -2.31996150       0.00000000
Si       1.66341425      -1.62904887       1.90210592       0.00000000
Si      -0.46732589      -2.39055750      -2.10977625       0.00000000
Si      -2.74359179       1.59296652       0.70359178       0.00000000
Si       3.31308626      -1.58509845       0.16880966       0.00000000
Si      -2.29555163       0.68747058      -2.96770829       0.00000000
Si      -0.02439427       3.89479239      -0.28260115       0.00000000
Si       3.17830280       2.03152590       1.07008099       0.00000000
