10
Lattice="16.28999089631971 0.0 0.0 0.0 16.28999089631971 0.0 0.0 0.0 34.450931932916035" Properties=species:S:1:pos:R:3:initial_magmoms:R:1 pbc="T T T"
Si      -1.63451158       0.32602806       1.61182220       0.00000000
Si       2.21104333       0.22043628       0.69856194       0.00000000
Si      -0.51243616       2.03598936      -1.02284874       0.00000000
Si       0.09655083      -1.86354342      -1.42313434       0.00000000
Si      -3.26010697       0.08146629      -0.75743861       0.00000000
Si       2.83532500       1.98342153      -0.78837557       0.00000000
Si      -0.38019068       1.39590639      -3.26198831       0.00000000
Si       1.59508585      -3.24058599      -0.29193736       0.00000000
Si       1.09881100       3.51054387      -0.23106253       0.00000000
Si      -2.77600075       2.33515521      -0.67813252       0.00000000
