10
Lattice="16.28999089631971 0.0 0.0 0.0 16.28999089631971 0.0 0.0 0.0 34.450931932916035" Properties=species:S:1:pos:R:3:initial_magmoms:R:1 pbc="T T T"
Si       0.16423578       0.31513005       2.28537275       0.00000000
Si      -2.21104333      -0.22043628      -0.69856194       0.00000000
Si       1.00053180      -2.13442983       0.14248913       0.00000000
Si       0.62428167       1.76298525      -1.48693750       0.00000000
Si       3.07840275      -1.14411186      -0.32993676       0.00000000
Si      -1.11223233       3.29010759      -0.92962447       0.00000000
Si      -2.11449250      -2.08397970      -2.12169628       0.00000000
Si      -0.61595748      -3.46102227      -0.99049930       0.00000000
Si      -1.36834371      -1.37479455       3.11050748       0.00000000
Si      -2.72347949       1.81555308      -1.72141068       0.00000000
