10
Lattice="16.28999089631971 0.0 0.0 0.0 16.28999089631971 0.0 0.0 0.0 34.450931932916035" Properties=species:S:1:pos:R:3:initial_magmoms:R:1 pbc="T T T"
Si      -1.35790508       1.35709755      -1.35702297       0.00000000
Si       1.35708732      -1.35758927      -1.35743638       0.00000000
Si      -1.35796698      -1.35739379       1.35757418       0.00000000
Si       1.35713619       1.35969417       1.35729857       0.00000000
Si      -2.71341445      -0.00032463      -2.71349472       0.00000000
Si      -0.00130320      -2.71402499      -2.71470050       0.00000000
Si      -0.00234576       2.71397310      -2.71497611       0.00000000
Si       2.71435383       2.71522743       0.00006890       0.00000000
Si      -2.71532736       2.71442922       0.00037896       0.00000000
Si       0.00045612       2.71455954       2.71538952       0.00000000
