10
Lattice="16.28999089631971 0.0 0.0 0.0 16.28999089631971 0.0 0.0 0.0 34.450931932916035" Properties=species:S:1:pos:R:3:initial_magmoms:R:1 pbc="T T T"
Si      -0.28596655       0.17971128       2.29195288       0.00000000
Si       1.40775899      -1.87892118       0.11234455       0.00000000
Si      -1.06945220      -0.39853485      -2.08490266       0.00000000
Si       1.66022141       1.72125027      -0.12309325       0.00000000
Si       2.94033848      -0.18899658      -0.71279018       0.00000000
Si      -2.06451056       1.80134820      -2.08955354       0.00000000
Si      -1.87417820      -2.53431675      -1.56899967       0.00000000
Si       1.99631669       0.14835303       2.97721675       0.00000000
Si      -1.65216179       2.07326088       2.42345216       0.00000000
Si      -0.00565263      -3.64741245      -0.64650655       0.00000000
