10
Lattice="16.28999089631971 0.0 0.0 0.0 16.28999089631971 0.0 0.0 0.0 34.450931932916035" Properties=species:S:1:pos:R:3:initial_magmoms:R:1 pbc="T T T"
Si       0.56669652      -2.20113738       0.37579098       0.00000000
Si       0.17255997      -0.20712735      -2.31889352       0.00000000
Si       1.95577740       1.19632131       0.64743673       0.00000000
Si      -2.29337855       0.72961281       0.53116477       0.00000000
Si       0.87713505      -1.98426861       2.70394254       0.00000000
Si      -2.10972328      -0.17576910      -3.00415739       0.00000000
Si      -0.47061810      -3.58368597      -1.26683038       0.00000000
Si       1.94411376       3.33801648      -0.14596868       0.00000000
Si       3.85409997       0.30455784      -0.45464920       0.00000000
Si       0.86082876       1.81579743      -3.35273212       0.00000000
