10
Lattice="16.28999089631971 0.0 0.0 0.0 16.28999089631971 0.0 0.0 0.0 34.450931932916035" Properties=species:S:1:pos:R:3:initial_magmoms:R:1 pbc="T T T"
Si      -0.80085875      -1.96182099      -0.88869674       0.00000000
Si       2.37744405       0.06970491       0.18138426       0.00000000
Si      -0.56240899       0.45382311       2.28099748       0.00000000
Si      -0.82525303       1.93297140      -1.17129789       0.00000000
Si       0.69936228       2.36239209       2.51877794       0.00000000
Si      -3.54445055      -0.36885447      -0.18510496       0.00000000
Si       0.15263730       3.61730268       0.54938932       0.00000000
Si      -3.11672402       1.95641271      -0.59086826       0.00000000
Si      -1.54823418      -3.34230075       0.80890833       0.00000000
Si       2.84338692       1.47996279       2.06285406       0.00000000
