10
Lattice="16.28999089631971 0.0 0.0 0.0 16.28999089631971 0.0 0.0 0.0 34.450931932916035" Properties=species:S:1:pos:R:3:initial_magmoms:R:1 pbc="T T T"
Si       2.33720775      -0.22729437      -0.28546058       0.00000000
Si      -0.41464566       1.65492637      -1.69023257       0.00000000
Si      -0.43140807       1.42074864       1.89845412       0.00000000
Si      -1.24431165      -2.05175808      -0.28201549       0.00000000
Si      -2.61070219       2.13374632      -0.93809940       0.00000000
Si       1.19088045       3.03665215       1.32787746       0.00000000
Si       3.07006227       1.98753380       0.21597301       0.00000000
Si       3.26130687      -1.38406356       1.55508149       0.00000000
Si      -0.92711277      -2.76283287      -2.55505479       0.00000000
Si      -2.37010215       2.81380658       1.35288885       0.00000000
