10
Lattice="16.28999089631971 0.0 0.0 0.0 16.28999089631971 0.0 0.0 0.0 34.450931932916035" Properties=species:S:1:pos:R:3:initial_magmoms:R:1 pbc="T T T"
Si      -0.80526357      -1.99220184       0.89245189       0.00000000
Si       2.25427536      -0.45457245      -0.49220074       0.00000000
Si      -0.21835116       1.19583261       2.02144401       0.00000000
Si      -0.82106487       1.03029363      -2.03556890       0.00000000
Si      -0.84124818       3.13283483       0.81183666       0.00000000
Si       2.96261343       1.73778855      -0.09284531       0.00000000
Si       0.78723054      -2.24577198       2.58885118       0.00000000
Si      -2.88916834      -1.20578580       1.70418520       0.00000000
Si       1.23119820       3.33944090      -0.42929330       0.00000000
Si       2.86479198      -1.82360034       1.33084024       0.00000000
