10
Lattice="10.86 0.0 0.0 0.0 10.86 0.0 0.0 0.0 10.86" Properties=species:S:1:pos:R:3:initial_magmoms:R:1 pbc="T T T"
Si       0.93887958      -1.58210652      -1.54914642       0.00000000
Si       0.97302342       1.00340970       2.07629082       0.00000000
Si      -1.77612042       1.13289348      -1.54914642       0.00000000
Si      -1.77612042      -1.58210652       1.16585358       0.00000000
Si       1.82173242       1.98539262       0.05898066       0.00000000
Si       2.18815968      -2.87400126      -0.22050144       0.00000000
Si       2.29637958      -0.22460652      -2.90664642       0.00000000
Si      -0.64637634       2.57891334       2.74029294       0.00000000
Si      -0.41862042       2.49039348      -2.90664642       0.00000000
Si       0.84812256      -1.11331290       3.60035064       0.00000000
