10
Lattice="10.86 0.0 0.0 0.0 10.86 0.0 0.0 0.0 10.86" Properties=species:S:1:pos:R:3:initial_magmoms:R:1 pbc="T T T"
Si      -1.35750000       1.35750000      -1.35750000       0.00000000
Si       1.35750000       1.35750000       1.35750000       0.00000000
Si      -1.35750000      -1.35750000       1.35750000       0.00000000
Si       1.35750000      -1.35750000      -1.35750000       0.00000000
Si       2.56735830       0.16653810       2.61537036       0.00000000
Si       2.50561920      -2.68926180       0.14298276       0.00000000
Si       2.48724408       2.80351986       0.21693936       0.00000000
Si      -2.77090728      -0.16144476      -2.59171728       0.00000000
Si      -2.80040304       0.05799240       2.57489514       0.00000000
Si      -2.89822992      -2.44946214      -0.32765706       0.00000000
