10
Lattice="16.28999089631971 0.0 0.0 0.0 16.28999089631971 0.0 0.0 0.0 34.63643526849801" Properties=species:S:1:pos:R:3:initial_magmoms:R:1 pbc="T T T"
Si      -0.25632315      -2.10481787       1.00941020       0.00000000
Si       2.31190938       0.11662011       0.52962603       0.00000000
Si      -1.03669560       2.18009070       0.34903155       0.00000000
Si       0.73143729      -1.14448653      -2.10807854       0.00000000
Si      -0.65399463       2.16526680      -2.30938561       0.00000000
Si       2.76051969      -1.68076962      -0.96666881       0.00000000
Si       2.46106062       2.37223125       0.06556681       0.00000000
Si      -1.04383062      -1.63680291       3.15489611       0.00000000
Si       0.76150863       3.38735889       1.35026755       0.00000000
Si       0.32358456       0.48088080      -3.77409201       0.00000000
