10
Lattice="16.28999089631971 0.0 0.0 0.0 16.28999089631971 0.0 0.0 0.0 34.63643526849801" Properties=species:S:1:pos:R:3:initial_magmoms:R:1 pbc="T T T"
Si       1.23753501       0.66947013      -1.87009146       0.00000000
Si      -0.31482054      -2.30899021       0.27930837       0.00000000
Si       0.33594867       1.15914753       2.01462938       0.00000000
Si      -2.32808535       0.22669164      -0.26053541       0.00000000
Si       3.40733043       0.39521169      -0.84325912       0.00000000
Si      -2.75664267      -2.19001131       0.48944774       0.00000000
Si       0.94547160       3.03746598      -1.71699833       0.00000000
Si      -2.95670016       1.28114334       1.74301031       0.00000000
Si      -0.07791507      -0.29709702      -3.70499228       0.00000000
Si      -1.41203349       0.75784338       3.47857377       0.00000000
