10
Lattice="16.28999089631971 0.0 0.0 0.0 16.28999089631971 0.0 0.0 0.0 34.63643526849801" Properties=species:S:1:pos:R:3:initial_magmoms:R:1 pbc="T T T"
Si      -1.83404223       0.86402160       1.38590500       0.00000000
Si       0.86908779      -1.82718414       1.40167844       0.00000000
Si       1.79201403       1.70201178       0.12351706       0.00000000
Si      -0.03937293      -0.63905670      -2.43990066       0.00000000
Si      -1.34185617      -2.55208914      -1.66785409       0.00000000
Si      -0.49876722       2.22822765       2.77629541       0.00000000
Si       2.22930279      -0.50238360       2.77958587       0.00000000
Si       0.86068215       3.55793148       1.39164426       0.00000000
Si      -3.26377155       2.16572292      -0.03293234       0.00000000
Si       2.15415702      -3.27308128       0.07121948       0.00000000
