10
Lattice="16.28999089631971 0.0 0.0 0.0 16.28999089631971 0.0 0.0 0.0 34.63643526849801" Properties=species:S:1:pos:R:3:initial_magmoms:R:1 pbc="T T T"
Si       1.38471516      -1.33626870      -1.32466774       0.00000000
Si      -1.34113941      -1.35374787       1.35869113       0.00000000
Si       1.36480878       1.37378457       1.34861192       0.00000000
Si      -1.77842817       0.85064751      -1.29737768       0.00000000
Si       2.38319442       0.42057522      -2.49116119       0.00000000
Si      -2.70135441      -2.67854841      -0.01921631       0.00000000
Si      -2.70405855       0.00946449       2.70608385       0.00000000
Si       0.00851967      -2.70128925       2.71249160       0.00000000
Si      -2.70976005       2.70656721      -0.02925049       0.00000000
Si       2.73645936      -2.68770339       0.00646663       0.00000000
