10
Lattice="16.28999089631971 0.0 0.0 0.0 16.28999089631971 0.0 0.0 0.0 34.63643526849801" Properties=species:S:1:pos:R:3:initial_magmoms:R:1 pbc="T T T"
Si       1.35537687       1.35527913      -1.35750657       0.00000000
Si      -1.35984033       1.35488817       1.35916912       0.00000000
Si       1.35524655      -1.36010097       1.35958475       0.00000000
Si      -1.35899325      -1.35954711      -1.35709093       0.00000000
Si       2.71381626       2.71147050      -0.00045027       0.00000000
Si      -0.00169416       2.71270854      -2.71480531       0.00000000
Si       2.71296918      -0.00338832      -2.71456286       0.00000000
Si      -2.71595025       2.71181259      -0.00010391       0.00000000
Si      -0.00091224      -2.71709707      -2.71442431       0.00000000
Si      -2.71673217      -0.00296478      -2.71497850       0.00000000
