10
Lattice="16.28999089631971 0.0 0.0 0.0 16.28999089631971 0.0 0.0 0.0 34.63643526849801" Properties=species:S:1:pos:R:3:initial_magmoms:R:1 pbc="T T T"
Si      -0.64050651      -1.32260465       1.91362948       0.00000000
Si       1.16800929      -1.20818206      -1.73528638       0.00000000
Si      -1.25200542       1.32877530      -1.81865632       0.00000000
Si      -2.33016232       1.54717533       0.30480080       0.00000000
Si       2.57186520      -2.02499850       0.01877296       0.00000000
Si       1.47378888      -2.31686968       2.15747012       0.00000000
Si      -2.06417595      -2.86561367       0.67423323       0.00000000
Si       2.65038300       0.07648155      -3.12171438       0.00000000
Si      -2.72214764      -0.01949913      -3.08454947       0.00000000
Si      -0.06327036      -2.69235323      -3.11887419       0.00000000
