10
Lattice="16.28999089631971 0.0 0.0 0.0 16.28999089631971 0.0 0.0 0.0 34.63643526849801" Properties=species:S:1:pos:R:3:initial_magmoms:R:1 pbc="T T T"
Si      -1.34534223       1.31527089      -1.40959979       0.00000000
Si      -1.40784696      -1.04578542       1.61745316       0.00000000
Si       1.36904418      -1.40390478      -1.39138102       0.00000000
Si       1.25499789       1.44883260       1.45251436       0.00000000
Si      -2.66918166      -2.62239678       0.11953040       0.00000000
Si      -2.66556528       2.68768710       0.00561111       0.00000000
Si      -2.45962710       0.96873372       2.77510738       0.00000000
Si       0.04940757      -2.32098291       3.06300559       0.00000000
Si       0.01558953       2.67338448      -2.77278674       0.00000000
Si      -0.38918439       2.46927078       2.94759693       0.00000000
