10
Lattice="16.28999089631971 0.0 0.0 0.0 16.28999089631971 0.0 0.0 0.0 34.63643526849801" Properties=species:S:1:pos:R:3:initial_magmoms:R:1 pbc="T T T"
Si       2.26698156       0.29996406      -0.50922516       0.00000000
Si      -1.03702140       0.90090216      -1.90649437       0.00000000
Si      -0.33169698      -2.33753355       0.08676432       0.00000000
Si      -0.95899230       1.04295096       1.89648444       0.00000000
Si      -2.78513388      -0.64021329      -2.22040456       0.00000000
Si      -3.31623675       0.83381994       1.30887698       0.00000000
Si       0.61662537       0.76593951      -3.56824756       0.00000000
Si      -0.20010636      -2.93817843      -2.25039973       0.00000000
Si       2.22788556       1.92380013      -2.30484824       0.00000000
Si      -3.56047272      -1.14140772      -0.02227124       0.00000000
