10
Lattice="16.28999089631971 0.0 0.0 0.0 16.28999089631971 0.0 0.0 0.0 34.63643526849801" Properties=species:S:1:pos:R:3:initial_magmoms:R:1 pbc="T T T"
Si       1.35045729       1.33389036      -1.37582579       0.00000000
Si       1.35348723      -1.35610992       1.35861493       0.00000000
Si      -1.35853713       1.35876383       1.35754120       0.00000000
Si      -1.36959804      -1.33309215      -1.38657348       0.00000000
Si      -0.07226244       2.65317903      -2.70130056       0.00000000
Si       2.71275741      -2.71423980      -0.00557647       0.00000000
Si       2.71134018       2.71566585      -0.00474519       0.00000000
Si       2.71171485       0.00185706       2.71556732       0.00000000
Si      -0.00242721      -2.71342530       2.71529022       0.00000000
Si      -0.00219915       2.71684687       2.71594832       0.00000000
