10
Lattice="16.28999089631971 0.0 0.0 0.0 16.28999089631971 0.0 0.0 0.0 34.63643526849801" Properties=species:S:1:pos:R:3:initial_magmoms:R:1 pbc="T T T"
Si      -0.13168836       1.90244298      -1.41209362       0.00000000
Si      -2.14257483      -1.05964821       0.08870396       0.00000000
Si      -0.23368005       1.45054305       1.98189793       0.00000000
Si       1.95512580      -1.50193800      -0.47372279       0.00000000
Si       1.57983678       3.15695706      -0.38145127       0.00000000
Si      -1.74957858      -3.14028846       1.01661458       0.00000000
Si      -2.59392186       1.94768846       2.05058202       0.00000000
Si       0.46752300       0.19955250       3.82701651       0.00000000
Si       2.85426864      -2.14075035       1.64356904       0.00000000
Si       3.42604764      -0.26678133      -1.97403546       0.00000000
