10
Lattice="16.28999089631971 0.0 0.0 0.0 16.28999089631971 0.0 0.0 0.0 34.63643526849801" Properties=species:S:1:pos:R:3:initial_magmoms:R:1 pbc="T T T"
Si      -0.70120305       1.25099055      -1.84511857       0.00000000
Si       0.73309887      -2.20534020      -0.52169428       0.00000000
Si       0.08790084       1.41352632       1.92131877       0.00000000
Si      -2.03137929      -0.64668042       1.08412103       0.00000000
Si       2.98670634       0.99877248      -0.76293719       0.00000000
Si      -2.35392129       1.53250523       2.13145814       0.00000000
Si       1.77012027      -3.10624236       1.38480009       0.00000000
Si       1.17289629       0.26507088       3.64437848       0.00000000
Si      -1.54611648      -2.27242242       2.69367708       0.00000000
Si      -0.46752300      -0.19955250      -3.82701651       0.00000000
