10
Lattice="16.28999089631971 0.0 0.0 0.0 16.28999089631971 0.0 0.0 0.0 34.63643526849801" Properties=species:S:1:pos:R:3:initial_magmoms:R:1 pbc="T T T"
Si      -1.35174420       1.35143469      -1.33113437       0.00000000
Si       1.34851878       1.33970589       1.35187814       0.00000000
Si       1.28933721      -1.31981417      -1.44720113       0.00000000
Si      -1.36914192      -1.37425535       1.34041348       0.00000000
Si      -2.41215804      -0.41454792      -2.47817841       0.00000000
Si      -0.50165055      -2.09645947      -2.83041976       0.00000000
Si       2.68965819       2.69053785      -0.00537904       0.00000000
Si      -0.00979029       2.69682579       2.70308087       0.00000000
Si       2.70348840      -0.01464471       2.70269987       0.00000000
Si      -2.73645936       2.68770339      -0.00646663       0.00000000
