10
Lattice="16.28999089631971 0.0 0.0 0.0 16.28999089631971 0.0 0.0 0.0 34.63643526849801" Properties=species:S:1:pos:R:3:initial_magmoms:R:1 pbc="T T T"
Si       1.35822762      -1.35645105       1.35574011       0.00000000
Si      -1.35746199      -1.35561277      -1.35740266       0.00000000
Si       1.35752715       1.35945751      -1.35733338       0.00000000
Si      -1.35837423       1.35944122       1.36003503       0.00000000
Si      -0.00179190      -2.70321051       2.69845691       0.00000000
Si       2.71419093      -2.71037811      -0.00051955       0.00000000
Si      -0.00061902      -2.71254468      -2.71435504       0.00000000
Si      -2.71453302       0.00244513      -2.71397404       0.00000000
Si       2.71445157       0.00213888      -2.71428577       0.00000000
Si       2.71375110       0.00731584       2.71525559       0.00000000
