10
Lattice="16.28999089631971 0.0 0.0 0.0 16.28999089631971 0.0 0.0 0.0 34.63643526849801" Properties=species:S:1:pos:R:3:initial_magmoms:R:1 pbc="T T T"
Si       1.73488500      -1.40190111       0.74187822       0.00000000
Si       0.83487879       1.80579537       1.26835233       0.00000000
Si       0.53144496       0.28131201      -2.29799022       0.00000000
Si      -2.25763110      -0.35144046       0.78565870       0.00000000
Si       0.28481436       0.81876798       3.31921145       0.00000000
Si       3.58741638      -0.29848167      -0.18416203       0.00000000
Si      -2.02528683       0.68791041       2.91122865       0.00000000
Si       1.50371361      -1.21741686       3.07447026       0.00000000
Si      -3.46752198       0.46688769      -1.07712447       0.00000000
Si       1.18584684      -3.49913177      -0.08842687       0.00000000
