10
Lattice="16.28999089631971 0.0 0.0 0.0 16.28999089631971 0.0 0.0 0.0 34.63643526849801" Properties=species:S:1:pos:R:3:initial_magmoms:R:1 pbc="T T T"
Si       0.14915124       2.25561114      -0.46405922       0.00000000
Si       1.20989088      -0.81832815       1.86278317       0.00000000
Si      -2.31190938      -0.11662011      -0.52962603       0.00000000
Si       0.44861031      -1.79738973      -1.49629484       0.00000000
Si      -1.58047209      -1.26110664      -2.63770457       0.00000000
Si      -2.56823253      -2.22143798       0.47978417       0.00000000
Si      -0.48984030      -3.44788601      -0.01201885       0.00000000
Si       3.46752198      -0.46688769       1.07712447       0.00000000
Si      -1.55040075       3.27073878       0.82064152       0.00000000
Si      -0.67787577       2.73398328      -2.55648208       0.00000000
