10
Lattice="16.28999089631971 0.0 0.0 0.0 16.28999089631971 0.0 0.0 0.0 34.63643526849801" Properties=species:S:1:pos:R:3:initial_magmoms:R:1 pbc="T T T"
Si      -0.44861031       1.79738973       1.49629484       0.00000000
Si      -2.02908240       0.53628309      -1.14140973       0.00000000
Si       2.23809939      -0.30771810      -0.81911752       0.00000000
Si      -0.93845061      -1.65049628       1.48427599       0.00000000
Si      -2.76051969       1.68076962       0.96666881       0.00000000
Si       1.31139387      -1.04065081      -3.05503921       0.00000000
Si       0.76128057       0.97906158       3.35907801       0.00000000
Si      -3.01684284      -0.42404825       1.97607901       0.00000000
Si       0.16285113      -1.34980732       3.59384390       0.00000000
Si       3.55035663       1.61181405       0.27542909       0.00000000
