10
Lattice="16.28999089631971 0.0 0.0 0.0 16.28999089631971 0.0 0.0 0.0 34.63643526849801" Properties=species:S:1:pos:R:3:initial_magmoms:R:1 pbc="T T T"
Si       0.33743106       2.22732355      -0.79916692       0.00000000
Si       1.69521885      -1.69445226      -0.05136586       0.00000000
Si      -1.80714581      -0.50387739      -1.51555271       0.00000000
Si      -0.27038142      -0.47958900       2.42846574       0.00000000
Si      -3.00603931       1.57284022      -1.77054629       0.00000000
Si      -1.20723561       2.75062352      -2.53473039       0.00000000
Si       2.51963946      -1.98796548      -2.27537261       0.00000000
Si      -1.00717812      -0.72053113      -3.78829295       0.00000000
Si      -2.98479227      -2.50919661      -1.04477402       0.00000000
Si       2.08541322       2.62862770      -2.26311131       0.00000000
