10
Lattice="16.28999089631971 0.0 0.0 0.0 16.28999089631971 0.0 0.0 0.0 34.63643526849801" Properties=species:S:1:pos:R:3:initial_magmoms:R:1 pbc="T T T"
Si      -1.03946490      -0.27750015      -2.08362520       0.00000000
Si       2.11370895      -0.91784376      -0.48310927       0.00000000
Si       0.23278410       2.30270553       0.50541515       0.00000000
Si      -1.35286821      -1.45172896       1.47852634       0.00000000
Si       0.26308350      -3.08530061       1.10604591       0.00000000
Si      -0.09738162      -2.31973998      -2.76243044       0.00000000
Si       3.45484836       1.00274724      -0.75919645       0.00000000
Si      -3.23227809      -1.01088247      -1.52002081       0.00000000
Si       2.50372413      -2.35590704       1.41950582       0.00000000
Si      -0.68057991       3.40571772      -1.39006483       0.00000000
