10
Lattice="16.28999089631971 0.0 0.0 0.0 16.28999089631971 0.0 0.0 0.0 34.63643526849801" Properties=species:S:1:pos:R:3:initial_magmoms:R:1 pbc="T T T"
Si      -1.35537687      -1.35527913       1.35750657       0.00000000
Si       1.35843939       1.35619137       1.35705629       0.00000000
Si      -1.35707103       1.35742941      -1.35729875       0.00000000
Si       1.35759231      -1.35866745      -1.35705629       0.00000000
Si      -0.00154755      -2.71288773      -2.71199976       0.00000000
Si      -2.71437012      -2.71482624       0.00041564       0.00000000
Si      -2.71487511       2.71485882       0.00038100       0.00000000
Si       2.71551042       2.71464705      -0.00017318       0.00000000
Si      -0.00094482       2.71464705      -2.71553268       0.00000000
Si       2.71694394       0.00226431       2.71380086       0.00000000
