10
Lattice="16.28999089631971 0.0 0.0 0.0 16.28999089631971 0.0 0.0 0.0 34.63643526849801" Properties=species:S:1:pos:R:3:initial_magmoms:R:1 pbc="T T T"
Si      -1.79880370      -1.17778329       0.76418410       0.00000000
Si      -0.60424497       2.20737645      -0.50136268       0.00000000
Si       0.62861481      -1.05445170      -2.00354572       0.00000000
Si       1.54466667      -0.52329996       1.73556347       0.00000000
Si       3.29264883      -0.12199581       0.27161908       0.00000000
Si      -0.59991020      -3.25450091       1.01917768       0.00000000
Si       2.95670016      -1.28114334      -1.74301031       0.00000000
Si       1.38274407       3.22893864      -1.11411620       0.00000000
Si       0.20005749      -3.47115465      -1.25356257       0.00000000
Si      -1.60710624       3.09860235       1.38265263       0.00000000
