10
Lattice="16.28999089631971 0.0 0.0 0.0 16.28999089631971 0.0 0.0 0.0 34.63643526849801" Properties=species:S:1:pos:R:3:initial_magmoms:R:1 pbc="T T T"
Si      -1.32838434      -1.42731351      -1.36318694       0.00000000
Si       1.45174851       1.34084619      -1.39775413       0.00000000
Si      -1.61314983      -0.21572847       1.89374816       0.00000000
Si      -0.92597247       1.90268829       1.34004979       0.00000000
Si      -2.58154146       0.01601307      -2.84316801       0.00000000
Si      -2.92359888      -2.58545106       0.14651220       0.00000000
Si       0.13418073      -2.69736336      -2.83534018       0.00000000
Si      -2.69558775       2.86875045       0.00072737       0.00000000
Si       0.12797424       2.74944249      -2.82865534       0.00000000
Si       3.20126193       2.41937451      -0.18901113       0.00000000
