10
Lattice="16.28999089631971 0.0 0.0 0.0 16.28999089631971 0.0 0.0 0.0 34.63643526849801" Properties=species:S:1:pos:R:3:initial_magmoms:R:1 pbc="T T T"
Si      -2.26204569       0.37688544      -0.57908688       0.00000000
Si       1.71559764       0.51522012      -1.59729474       0.00000000
Si       0.36813771       1.79602137       1.57259895       0.00000000
Si       0.38960793      -2.39401098       0.27352408       0.00000000
Si       2.69970912      -2.26315341       0.68150688       0.00000000
Si      -3.38498055      -1.03389372       0.89843500       0.00000000
Si       3.24977355      -1.27612602      -1.36935223       0.00000000
Si      -2.33305380      -0.31542327       2.98001665       0.00000000
Si       2.55432087       1.45888353       2.45859946       0.00000000
Si       0.15726366      -3.43336185      -1.85204587       0.00000000
