10
Lattice="16.28999089631971 0.0 0.0 0.0 16.28999089631971 0.0 0.0 0.0 34.63643526849801" Properties=species:S:1:pos:R:3:initial_magmoms:R:1 pbc="T T T"
Si       1.43501868       1.77293844       0.50683524       0.00000000
Si       1.53417591      -1.79134614       0.22794251       0.00000000
Si      -0.60667218       0.28347858      -2.29303721       0.00000000
Si      -1.71559764      -0.51522012       1.59729474       0.00000000
Si       2.91007818       1.70676846      -1.30503234       0.00000000
Si      -1.34745993       1.28080125       3.16989369       0.00000000
Si      -1.32598971      -2.90923110       1.87081882       0.00000000
Si       0.98411148      -2.77837353       2.27880162       0.00000000
Si      -2.61907362      -0.87464268      -2.58159351       0.00000000
Si       0.69929712      -3.59714151      -1.04040982       0.00000000
