10
Lattice="16.28999089631971 0.0 0.0 0.0 16.28999089631971 0.0 0.0 0.0 34.63643526849801" Properties=species:S:1:pos:R:3:initial_magmoms:R:1 pbc="T T T"
Si      -0.42828039      -1.76132367      -1.48355005       0.00000000
Si       1.32344847      -1.39295790       1.37655662       0.00000000
Si      -1.43518158       1.31522202       1.34844567       0.00000000
Si       0.95855247       1.75650183      -1.32748299       0.00000000
Si       2.69690724       2.67667506      -0.06043715       0.00000000
Si      -0.05481585       2.66637978       2.72922793       0.00000000
Si       2.65681755      -0.04728987       2.73968814       0.00000000
Si       2.71467963      -2.76687279       0.02553399       0.00000000
Si      -0.05874174      -2.75796216       2.73179103       0.00000000
Si      -2.76670989      -0.04841388       2.73386922       0.00000000
