10
Lattice="16.28999089631971 0.0 0.0 0.0 16.28999089631971 0.0 0.0 0.0 34.63643526849801" Properties=species:S:1:pos:R:3:initial_magmoms:R:1 pbc="T T T"
Si      -1.17735975      -2.05838811       0.18333075       0.00000000
Si      -0.89236620       1.93559409      -1.13621426       0.00000000
Si       0.93361248       0.84447360       2.07042871       0.00000000
Si       1.83365127      -0.74238417      -1.44659153       0.00000000
Si       1.33864704       3.01322646      -1.52244536       0.00000000
Si       3.03367041       1.25130006      -1.86087816       0.00000000
Si      -3.13720965      -1.92055842       1.53692340       0.00000000
Si      -2.16218799      -2.66103666      -2.05144793       0.00000000
Si       3.28676814       1.27970982       2.02553987       0.00000000
Si      -1.57047003       1.52785539      -3.47081521       0.00000000
