10
Lattice="16.28999089631971 0.0 0.0 0.0 16.28999089631971 0.0 0.0 0.0 34.63643526849801" Properties=species:S:1:pos:R:3:initial_magmoms:R:1 pbc="T T T"
Si      -1.33362972       1.29878541       1.59794244       0.00000000
Si      -0.76776399      -1.93275963      -1.31822332       0.00000000
Si       0.89474454       1.95835678      -1.20181020       0.00000000
Si       1.38776139      -1.37411037       1.58468361       0.00000000
Si      -2.69545743      -2.67615378       0.07153813       0.00000000
Si      -2.75634945       2.61807408       0.27246767       0.00000000
Si       2.68573230       2.73500208       0.18140843       0.00000000
Si      -1.01576295       3.64026833      -0.84956885       0.00000000
Si       2.78039349      -2.73904947       0.17852668       0.00000000
Si       1.04203872      -3.65922270      -1.08851917       0.00000000
