10
Lattice="16.28999089631971 0.0 0.0 0.0 16.28999089631971 0.0 0.0 0.0 34.63643526849801" Properties=species:S:1:pos:R:3:initial_magmoms:R:1 pbc="T T T"
Si       1.35145098       1.34312679       1.39275609       0.00000000
Si      -1.35909099      -1.37523438       1.38350815       0.00000000
Si       1.39263210      -1.36493910      -1.40615693       0.00000000
Si      -1.38776139       1.37411037      -1.58468361       0.00000000
Si      -0.34572267      -2.28511233      -2.67320278       0.00000000
Si      -2.15552538      -0.55864926      -2.90290693       0.00000000
Si       2.69461035       2.68993512       0.01119797       0.00000000
Si      -2.72139111       2.67289578       0.01325883       0.00000000
Si      -0.00052128       2.69561545       2.74783810       0.00000000
Si       2.70896184      -2.74506048       0.01827073       0.00000000
