10
Lattice="16.28999089631971 0.0 0.0 0.0 16.28999089631971 0.0 0.0 0.0 34.63643526849801" Properties=species:S:1:pos:R:3:initial_magmoms:R:1 pbc="T T T"
Si      -1.35013149       1.34912151       1.35674456       0.00000000
Si       1.35944937       1.32970383      -1.38465116       0.00000000
Si       1.36515087      -1.36739889       1.35068318       0.00000000
Si      -1.33527501      -1.36420605      -1.39039042       0.00000000
Si       2.29078125      -0.52621587      -2.65277835       0.00000000
Si       0.49876722      -2.22822765      -2.77629541       0.00000000
Si      -2.70677735       2.70534546      -0.00471056       0.00000000
Si       0.00601101       2.70712107       2.71231149       0.00000000
Si      -2.70781014      -0.00656487       2.71258858       0.00000000
Si       2.72605005       2.70646947      -0.00471056       0.00000000
