10
Lattice="16.28999089631971 0.0 0.0 0.0 16.28999089631971 0.0 0.0 0.0 34.63643526849801" Properties=species:S:1:pos:R:3:initial_magmoms:R:1 pbc="T T T"
Si      -0.31444587      -2.26434258       0.33431106       0.00000000
Si      -2.12858172       0.98485009      -0.26933307       0.00000000
Si       1.91332566       0.16602768      -1.37818453       0.00000000
Si       1.06619679       0.44865350       2.06720752       0.00000000
Si       2.46236382       2.26325834      -0.54787944       0.00000000
Si       2.60283249      -1.30074021       1.84314430       0.00000000
Si      -2.42258364      -2.22923763       1.40132168       0.00000000
Si      -1.53015228       3.31371899      -0.50409896       0.00000000
Si       3.40850331      -1.38469887      -0.36551851       0.00000000
Si       2.23119243       2.44774259       1.78471260       0.00000000
