10
Lattice="16.28999089631971 0.0 0.0 0.0 16.28999089631971 0.0 0.0 0.0 34.63643526849801" Properties=species:S:1:pos:R:3:initial_magmoms:R:1 pbc="T T T"
Si      -1.78041555      -0.84647727      -1.34465644       0.00000000
Si       0.80311329       1.80341703      -1.42944648       0.00000000
Si       1.60006896      -1.84720455      -0.02615052       0.00000000
Si      -0.33462918       0.01019754       3.30009212       0.00000000
Si      -1.64688642      -1.90933461       2.20554552       0.00000000
Si       2.18986470       0.44598762      -2.77711630       0.00000000
Si      -0.54732771      -2.26074901      -2.79568144       0.00000000
Si      -2.57359194      -2.64226732      -0.03037617       0.00000000
Si       2.01179871      -0.58893237       3.14665263       0.00000000
Si       3.48070059      -0.98280828      -1.27191989       0.00000000
