10
Lattice="16.28999089631971 0.0 0.0 0.0 16.28999089631971 0.0 0.0 0.0 34.63643526849801" Properties=species:S:1:pos:R:3:initial_magmoms:R:1 pbc="T T T"
Si      -1.88338464      -0.63076509       1.28543780       0.00000000
Si       0.72195651       1.95556563       1.27355403       0.00000000
Si       1.74436578      -1.73317455      -0.10083527       0.00000000
Si      -0.20623140      -1.25978715      -2.46493658       0.00000000
Si      -0.59549724      -1.99280457       2.64417050       0.00000000
Si       2.14174393       0.71293185       2.64281621       0.00000000
Si       0.69002811      -3.35945412       1.21308918       0.00000000
Si      -0.41687739       0.82945422      -3.55809773       0.00000000
Si       3.43416236      -0.68128038       1.18925583       0.00000000
Si       2.38019936       3.11606523       0.11043730       0.00000000
