10
Lattice="16.28999089631971 0.0 0.0 0.0 16.28999089631971 0.0 0.0 0.0 34.63643526849801" Properties=species:S:1:pos:R:3:initial_magmoms:R:1 pbc="T T T"
Si      -1.37134107       1.35615879      -1.35477029       0.00000000
Si       1.38675141      -1.35742941      -1.34766981       0.00000000
Si       0.69468705       1.93458411       1.25553684       0.00000000
Si      -0.80311329      -1.80341703       1.42944648       0.00000000
Si      -2.58352884      -2.64989430       0.08479004       0.00000000
Si       2.65305456       2.74051557       0.07488401       0.00000000
Si      -2.70549207       0.00560376      -2.72474598       0.00000000
Si      -2.74968684       2.68291413       0.10242000       0.00000000
Si       0.00693954      -2.71334385      -2.72176724       0.00000000
Si       0.00853596       2.71976211      -2.72142088       0.00000000
