10
Lattice="16.28999089631971 0.0 0.0 0.0 16.28999089631971 0.0 0.0 0.0 34.63643526849801" Properties=species:S:1:pos:R:3:initial_magmoms:R:1 pbc="T T T"
Si       0.73181196       2.10935952      -0.71773661       0.00000000
Si       0.35730486      -2.01670200      -1.20562571       0.00000000
Si      -2.39523273       0.08757504       0.24688865       0.00000000
Si       1.20573255      -0.57441798       2.03648499       0.00000000
Si      -1.49522652      -3.12012144      -0.27958546       0.00000000
Si       1.93133004       3.07348317       1.04944994       0.00000000
Si      -3.23011152      -1.71822033      -1.02146368       0.00000000
Si      -2.94529716      -0.89945235       2.29774776       0.00000000
Si       2.49823181       1.94447214      -2.23013740       0.00000000
Si       2.51982258      -2.91760416      -0.76328355       0.00000000
