10
Lattice="16.28999089631971 0.0 0.0 0.0 16.28999089631971 0.0 0.0 0.0 34.63643526849801" Properties=species:S:1:pos:R:3:initial_magmoms:R:1 pbc="T T T"
Si       0.16426836      -2.20815837       0.75992381       0.00000000
Si       1.09457790       0.03326418      -2.08781621       0.00000000
Si       1.05577838       1.91795202       0.96244316       0.00000000
Si      -2.24852499       0.64425321      -0.51199607       0.00000000
Si       0.21748779       3.35536533      -0.67336731       0.00000000
Si      -1.98500166       2.93863455      -0.01510149       0.00000000
Si       0.96542589       2.33380314      -2.63739284       0.00000000
Si       1.91683520      -2.25935784       2.33605568       0.00000000
Si       0.36898041      -3.61463697      -1.10078116       0.00000000
Si      -0.10494018      -0.93085947      -3.85500276       0.00000000
