10
Lattice="16.28999089631971 0.0 0.0 0.0 16.28999089631971 0.0 0.0 0.0 34.63643526849801" Properties=species:S:1:pos:R:3:initial_magmoms:R:1 pbc="T T T"
Si      -2.02491216       1.21018410       0.22437495       0.00000000
Si       1.92128400       1.07310375      -1.01159229       0.00000000
Si      -0.64488852      -1.32278058      -2.08497602       0.00000000
Si      -0.07431498       0.73679670       2.58847626       0.00000000
Si      -1.26052020       0.82461609      -3.11596473       0.00000000
Si       0.90385784       1.79836713      -3.03467297       0.00000000
Si      -3.86695278      -0.02282229      -0.82036443       0.00000000
Si       2.07321920       3.36688236       0.26760125       0.00000000
Si      -2.23555815       3.29942547      -0.86878619       0.00000000
Si      -1.81868076       2.46997125       2.68931154       0.00000000
