10
Lattice="16.28999089631971 0.0 0.0 0.0 16.28999089631971 0.0 0.0 0.0 34.63643526849801" Properties=species:S:1:pos:R:3:initial_magmoms:R:1 pbc="T T T"
Si       1.08261711       1.68912639      -1.27288971       0.00000000
Si      -1.74951342      -1.07852832      -1.20874299       0.00000000
Si       1.69486047      -1.82685834      -0.05562615       0.00000000
Si      -0.13139514       1.40196627       2.13391733       0.00000000
Si       1.47615093      -0.10228491       3.12916122       0.00000000
Si       2.36591073       0.31900707      -2.68103477       0.00000000
Si      -0.37116765      -2.40528366      -2.66593328       0.00000000
Si       1.70610057      -2.27271564       2.24620872       0.00000000
Si       2.76890904       2.63669940       0.09448825       0.00000000
Si       1.06862400       3.39565050       1.71963070       0.00000000
