10
Lattice="16.28999089631971 0.0 0.0 0.0 16.28999089631971 0.0 0.0 0.0 34.63643526849801" Properties=species:S:1:pos:R:3:initial_magmoms:R:1 pbc="T T T"
Si      -0.15217141       2.22454611       0.39191148       0.00000000
Si       1.07815691      -0.21840003      -2.12345712       0.00000000
Si      -1.86088719      -1.17279855       1.02922225       0.00000000
Si       2.33016232      -1.54717533      -0.30480080       0.00000000
Si      -2.36364546       2.70827766       0.01049485       0.00000000
Si      -1.15134366      -1.15346232       3.29648993       0.00000000
Si       1.68965581      -2.86977998       1.60882868       0.00000000
Si       0.98958329       2.80771182       2.27197824       0.00000000
Si      -0.39198531      -1.56667446      -3.38935027       0.00000000
Si      -1.88732586      -3.32182259       0.05711551       0.00000000
