10
Lattice="16.28999089631971 0.0 0.0 0.0 16.28999089631971 0.0 0.0 0.0 34.63643526849801" Properties=species:S:1:pos:R:3:initial_magmoms:R:1 pbc="T T T"
Si       1.43127016      -1.23026967       1.40736228       0.00000000
Si       1.11680982       1.71816236      -1.20990816       0.00000000
Si      -1.29371922       1.47678624       1.37577730       0.00000000
Si      -1.40506137      -1.19648421      -1.58882755       0.00000000
Si      -2.59569747      -2.57808798      -0.04157760       0.00000000
Si       2.76241326      -2.52235989      -0.00864872       0.00000000
Si      -0.67166928       3.48867359      -1.17377645       0.00000000
Si       0.08412156      -2.58800859       2.75013103       0.00000000
Si      -2.63687859       0.12997791       2.75733542       0.00000000
Si       2.74393714       0.51217389      -2.71007886       0.00000000
