10
Lattice="16.28999089631971 0.0 0.0 0.0 16.28999089631971 0.0 0.0 0.0 34.63643526849801" Properties=species:S:1:pos:R:3:initial_magmoms:R:1 pbc="T T T"
Si      -1.20001914      -1.99368423       0.41428663       0.00000000
Si       1.52746443      -0.02754639       1.85076432       0.00000000
Si      -1.69502337       1.76192640       0.33843280       0.00000000
Si       1.70028504      -0.75895110      -1.62514245       0.00000000
Si       0.01399311      -1.70652411      -2.99252041       0.00000000
Si      -3.03367041      -1.25130006       1.86087816       0.00000000
Si       2.38498632      -2.29180752       1.84369848       0.00000000
Si       0.40752693      -3.49793541       1.40953052       0.00000000
Si      -1.97472267       2.80456785      -1.78800306       0.00000000
Si       0.25309773       0.02840976       3.88641803       0.00000000
