10
Lattice="16.28999089631971 0.0 0.0 0.0 16.28999089631971 0.0 0.0 0.0 34.63643526849801" Properties=species:S:1:pos:R:3:initial_magmoms:R:1 pbc="T T T"
Si      -1.39543072       1.22280885      -1.50588914       0.00000000
Si      -1.32105873      -1.57753989       1.25550221       0.00000000
Si       1.31875695      -1.47768219      -1.51042651       0.00000000
Si       1.26133470       1.57661136       1.49792275       0.00000000
Si       2.66918166       2.62239678      -0.11953040       0.00000000
Si       2.58132969      -2.82983364      -0.04755585       0.00000000
Si      -2.81573369       2.60092656      -0.09303352       0.00000000
Si      -0.03398094       2.58116679      -2.88944232       0.00000000
Si       2.68354944      -0.13664052      -2.88978868       0.00000000
Si      -2.74547492      -0.14030577      -2.89013505       0.00000000
