10
Lattice="16.28999089631971 0.0 0.0 0.0 16.28999089631971 0.0 0.0 0.0 34.63643526849801" Properties=species:S:1:pos:R:3:initial_magmoms:R:1 pbc="T T T"
Si       1.29425679      -1.93337865       0.17512191       0.00000000
Si       0.69028875       1.98009837       1.03455626       0.00000000
Si      -2.35315566      -0.43523622       0.04488885       0.00000000
Si       1.27436670      -0.05595615      -2.03565371       0.00000000
Si      -2.26795896      -1.78515594       1.96658862       0.00000000
Si      -0.80488890       3.53082492       0.02189024       0.00000000
Si      -3.03266043       1.10045466       1.73438583       0.00000000
Si       2.13188859      -2.32021728      -2.04271955       0.00000000
Si      -1.47646044       0.09733275       3.47943969       0.00000000
Si      -0.11538207       2.06405703       3.24321907       0.00000000
