10
Lattice="16.28999089631971 0.0 0.0 0.0 16.28999089631971 0.0 0.0 0.0 34.63643526849801" Properties=species:S:1:pos:R:3:initial_magmoms:R:1 pbc="T T T"
Si      -0.20471205       1.40647860       1.86070498       0.00000000
Si      -0.78372381      -2.05535817       0.89382835       0.00000000
Si       2.34197600      -0.40739661       0.14221728       0.00000000
Si      -1.20573255       0.57441798      -2.03648499       0.00000000
Si      -0.84842769      -1.44228402      -3.24211070       0.00000000
Si      -1.92851985       0.42873651       3.11115026       0.00000000
Si      -2.93213046      -2.36121921       0.01652159       0.00000000
Si      -0.36898041       3.61463697       1.10078116       0.00000000
Si       3.08245424      -0.94413582      -2.02093322       0.00000000
Si       0.72559749       3.64790115      -0.98703505       0.00000000
