10
Lattice="16.28999089631971 0.0 0.0 0.0 16.28999089631971 0.0 0.0 0.0 34.63643526849801" Properties=species:S:1:pos:R:3:initial_magmoms:R:1 pbc="T T T"
Si      -1.32370911       1.36335897       1.43453111       0.00000000
Si       1.38655593      -1.38559482       1.42283092       0.00000000
Si       1.35138582       1.35573525      -1.51083319       0.00000000
Si      -1.91562255      -0.89094897      -1.22942165       0.00000000
Si       2.05148115      -0.45817254      -2.96161572       0.00000000
Si      -2.67967079      -0.00995319       2.80277152       0.00000000
Si      -2.71510643       2.77198785       0.04139403       0.00000000
Si       0.03324789       2.70391194       2.80311788       0.00000000
Si      -2.73789777      -2.77780338      -0.00174568       0.00000000
Si       2.74092282       2.77915545      -0.09852340       0.00000000
