10
Lattice="16.28999089631971 0.0 0.0 0.0 16.28999089631971 0.0 0.0 0.0 34.63643526849801" Properties=species:S:1:pos:R:3:initial_magmoms:R:1 pbc="T T T"
Si       1.35191850       1.34302905      -1.38154427       0.00000000
Si      -1.36101994      -1.37130849      -1.38133645       0.00000000
Si       1.38945066      -1.35439947       1.39394412       0.00000000
Si      -1.38311452       1.37525067       1.53560722       0.00000000
Si      -0.35641705      -2.27071197       2.66700701       0.00000000
Si      -2.31421834      -0.40593051       2.74559712       0.00000000
Si      -2.71845469       2.69193879      -0.00017318       0.00000000
Si       2.70809358       2.70588303       0.00322119       0.00000000
Si       2.70967371      -2.72681568      -0.02126678       0.00000000
Si      -2.71721665      -2.72362284      -0.02992590       0.00000000
