10
Lattice="16.28999089631971 0.0 0.0 0.0 16.28999089631971 0.0 0.0 0.0 34.63643526849801" Properties=species:S:1:pos:R:3:initial_magmoms:R:1 pbc="T T T"
Si      -1.74586772      -0.91631250       1.27306289       0.00000000
Si       1.32022305      -1.37241621      -1.41521090       0.00000000
Si      -1.38945066       1.35439947      -1.39394412       0.00000000
Si       1.23075837       1.46466648       1.54800707       0.00000000
Si       0.20593818      -1.71895338       2.76949628       0.00000000
Si      -0.87083082       2.18201292       2.54848106       0.00000000
Si       2.27638089      -0.21841632       2.94198582       0.00000000
Si       2.66556528      -2.68768710      -0.00561111       0.00000000
Si       2.68727985       2.71199178       0.01461658       0.00000000
Si       2.68115481      -0.01430262      -2.77839784       0.00000000
