10
Lattice="16.28999089631971 0.0 0.0 0.0 16.28999089631971 0.0 0.0 0.0 34.63643526849801" Properties=species:S:1:pos:R:3:initial_magmoms:R:1 pbc="T T T"
Si      -1.20208797       0.40661469      -1.97479746       0.00000000
Si       1.74811248       1.54111545       0.31391019       0.00000000
Si      -0.77533884      -0.50119443       2.19813332       0.00000000
Si       0.57133917      -2.00759589      -1.18848067       0.00000000
Si      -3.09461945      -0.73933794      -1.25418602       0.00000000
Si       2.58502752      -2.29796514      -0.02999517       0.00000000
Si       0.00158013      -1.06119576      -3.35235853       0.00000000
Si       2.78513388       0.64021329       2.22040456       0.00000000
Si       2.45343690      -1.69732026       2.30716888       0.00000000
Si      -1.01636568       3.09977523       1.91972550       0.00000000
