10
Lattice="16.28999089631971 0.0 0.0 0.0 16.28999089631971 0.0 0.0 0.0 34.63643526849801" Properties=species:S:1:pos:R:3:initial_magmoms:R:1 pbc="T T T"
Si      -1.74729702       0.23441310      -1.45653219       0.00000000
Si       1.89253148       1.14595263      -0.72061144       0.00000000
Si      -0.74793810       1.02156219       1.96402552       0.00000000
Si       0.12915201      -2.30053896       0.54957663       0.00000000
Si       3.09461945       0.73933794       1.25418602       0.00000000
Si       0.09035249      -0.41585112       3.59983600       0.00000000
Si      -1.07036607      -3.26466261      -1.21760993       0.00000000
Si      -0.96542589      -2.33380314       2.63739284       0.00000000
Si       3.09619958      -0.32185782      -2.09817251       0.00000000
Si       0.13640757       3.18671496       2.01300147       0.00000000
