10
Lattice="16.28999089631971 0.0 0.0 0.0 16.28999089631971 0.0 0.0 0.0 34.63643526849801" Properties=species:S:1:pos:R:3:initial_magmoms:R:1 pbc="T T T"
Si       0.69618573       0.63718335      -2.11479801       0.00000000
Si      -2.36339297       0.11223810       0.36156995       0.00000000
Si       1.88278191       1.31377221       0.83331846       0.00000000
Si      -0.37665738      -2.76690537       0.01821878       0.00000000
Si      -2.38284323      -1.85507262      -0.95343769       0.00000000
Si      -1.88835798      -0.54775125       2.55036636       0.00000000
Si      -0.01211976      -2.45824245       2.40150892       0.00000000
Si       2.40367095       2.13835572      -1.44756135       0.00000000
Si       0.50911137       2.66926311       2.25396728       0.00000000
Si       1.20484098      -1.53051066      -3.02480158       0.00000000
