10
Lattice="16.28999089631971 0.0 0.0 0.0 16.28999089631971 0.0 0.0 0.0 34.63643526849801" Properties=species:S:1:pos:R:3:initial_magmoms:R:1 pbc="T T T"
Si       1.33114310      -1.29209022      -1.41601100       0.00000000
Si      -1.34714860      -1.35773892       1.34276875       0.00000000
Si       1.36616986       1.36119240       1.34616313       0.00000000
Si      -1.43127016       1.23026967      -1.40736228       0.00000000
Si      -2.70871567       0.00133578       2.70463951       0.00000000
Si       0.00777481       2.71495611       2.70425851       0.00000000
Si       0.00795868      -2.71617831       2.70502052       0.00000000
Si       2.72254042      -2.70071910      -0.02287391       0.00000000
Si       2.72381104      -0.00022806       2.70547079       0.00000000
Si      -2.72498938       2.70705591      -0.03158498       0.00000000
