10
Lattice="16.2900001489832 0.0 0.0 0.0 16.2900001489832 0.0 0.0 0.0 28.998067450461" Properties=species:S:1:pos:R:3:initial_magmoms:R:1 pbc="T T T"
Si      -1.39171987       1.69608224      -0.75247085       0.00000000
Si       1.59871690      -0.63726481      -1.57804583       0.00000000
Si      -1.75598057      -1.61134165      -0.00539364       0.00000000
Si       0.57717100       0.13690116       2.40292486       0.00000000
Si      -1.07709481      -1.59075109       2.30728923       0.00000000
H        2.57526983      -1.70878844      -0.75696555       0.00000000
Si       2.63155178      -1.96786460       0.89531533       0.00000000
H       -0.59030074       3.02560689       1.48470105       0.00000000
Si       0.35134272       2.42553215       2.51508938       0.00000000
Si       0.69463819      -3.06726042       1.64100064       0.00000000
