10
Lattice="16.2900001489832 0.0 0.0 0.0 16.2900001489832 0.0 0.0 0.0 28.998067450461" Properties=species:S:1:pos:R:3:initial_magmoms:R:1 pbc="T T T"
Si       0.41173953       0.13504410      -2.26283520       0.00000000
Si       1.63504198      -1.39733992       0.85135426       0.00000000
Si      -1.80949485      -1.10297962       0.99698256       0.00000000
Si      -0.14845566       2.16632567       0.93594163       0.00000000
Si      -0.99198119      -0.74932372       3.19897981       0.00000000
Si      -1.62315353       1.09998226      -2.85068402       0.00000000
Si      -3.47156356       0.11613141      -0.11767416       0.00000000
Si       1.45176318      -0.83471590       3.06718359       0.00000000
Si       2.11357702       2.43980219       1.37221755       0.00000000
Si       2.03013964       1.78751801      -2.41493006       0.00000000
