10
Lattice="16.2900001489832 0.0 0.0 0.0 16.2900001489832 0.0 0.0 0.0 28.998067450461" Properties=species:S:1:pos:R:3:initial_magmoms:R:1 pbc="T T T"
Si       1.04084956      -2.08816625       0.03792947       0.00000000
Si      -1.65923426      -0.57534652      -1.56421375       0.00000000
Si      -1.04296726       0.14810868       2.13014758       0.00000000
Si       1.20070333       1.88121809      -0.97459605       0.00000000
H       -0.20802330      -2.95748211      -0.03581261       0.00000000
Si       0.69292774       0.94869703       3.47746565       0.00000000
Si       2.06858567      -2.36475416      -2.06683726       0.00000000
Si      -3.74826387      -0.09516618      -0.56215654       0.00000000
H        3.64936077       0.17914113       1.14336480       0.00000000
Si       2.89455058       2.66119307       0.35664723       0.00000000
