10
Lattice="16.2900001489832 0.0 0.0 0.0 16.2900001489832 0.0 0.0 0.0 28.998067450461" Properties=species:S:1:pos:R:3:initial_magmoms:R:1 pbc="T T T"
Si      -2.14410611      -0.62503102       0.63149091       0.00000000
Si       1.66206872      -1.21911103       1.11465671       0.00000000
Si       0.24449661      -0.59505742      -2.25503472       0.00000000
Si      -0.35016984       2.32326353       0.26199754       0.00000000
Si      -1.69279166       0.17948322       2.80347516       0.00000000
Si      -0.12184920       2.03631518       2.62583300       0.00000000
Si      -3.16361577       0.63708562      -1.12123928       0.00000000
Si      -1.70603543      -2.93262357       0.49885375       0.00000000
Si       0.93136447       2.86774050      -1.65709456       0.00000000
Si       1.84841003       0.98385085      -2.73300986       0.00000000
