10
Lattice="16.2900001489832 0.0 0.0 0.0 16.2900001489832 0.0 0.0 0.0 28.998067450461" Properties=species:S:1:pos:R:3:initial_magmoms:R:1 pbc="T T T"
Si      -2.12312459      -0.64534465       0.56030066       0.00000000
Si       0.23584662       2.31625883       0.23065063       0.00000000
Si       1.05169870      -0.99846298       1.88061167       0.00000000
Si       0.46910313      -0.43287417      -2.31909145       0.00000000
H       -0.54607338      -2.98590816      -0.98431040       0.00000000
Si       2.71225244      -0.55671076      -1.76606930       0.00000000
Si       3.02849022       0.22431330       1.83401177       0.00000000
H        2.25067529       1.26069940      -2.53208225       0.00000000
Si      -3.18604710      -1.42679224      -1.40745020       0.00000000
Si       1.70802281      -3.15273405       1.17230487       0.00000000
