10
Lattice="16.2900001489832 0.0 0.0 0.0 16.2900001489832 0.0 0.0 0.0 28.998067450461" Properties=species:S:1:pos:R:3:initial_magmoms:R:1 pbc="T T T"
Si       2.06741279       1.05300190      -0.12405373       0.00000000
Si       0.62708356      -1.99837577      -1.16525834       0.00000000
Si      -1.57690459       0.37903572      -1.80507170       0.00000000
Si      -1.32483313       1.07002495       1.78042335       0.00000000
Si       0.36659016      -1.37266057       2.19074600       0.00000000
H        1.92301823      -2.40529997      -0.46712987       0.00000000
H        1.19578375      -2.75683818       1.51813583       0.00000000
Si      -2.80621317      -0.85222765       1.87855281       0.00000000
Si      -2.00713979       2.91221220       0.44546831       0.00000000
Si      -1.24716241      -3.32860089      -0.74716421       0.00000000
