10
Lattice="16.2900001489832 0.0 0.0 0.0 16.2900001489832 0.0 0.0 0.0 28.998067450461" Properties=species:S:1:pos:R:3:initial_magmoms:R:1 pbc="T T T"
Si      -0.02915910      -0.07179003       2.30067767       0.00000000
Si      -1.68345749      -1.44757828      -0.66121393       0.00000000
Si      -0.11663640       2.12861432      -0.99640260       0.00000000
Si       1.98700535      -1.05350689      -0.85286216       0.00000000
H        1.34969167      -2.45607590      -0.55612494       0.00000000
Si       1.34120458      -0.34137324      -2.95095934       0.00000000
Si      -0.63558694      -1.56414952      -2.90435944       0.00000000
Si       3.35887423       0.73013410      -0.04341011       0.00000000
Si       2.23634009       2.32989356       1.25309349       0.00000000
Si      -3.64654911      -0.17405865      -0.25782182       0.00000000
