10
Lattice="16.2900001489832 0.0 0.0 0.0 16.2900001489832 0.0 0.0 0.0 28.998067450461" Properties=species:S:1:pos:R:3:initial_magmoms:R:1 pbc="T T T"
Si      -2.29630358      -0.03416013       0.49122726       0.00000000
Si      -0.14493213       0.73951714      -2.22647162       0.00000000
Si       0.83927710       1.67293415       1.42841580       0.00000000
Si       0.27639243      -2.40595157       0.10601693       0.00000000
H        2.31850685      -0.88301575       0.43853777       0.00000000
Si      -2.07047531      -2.32279112       0.37906274       0.00000000
H       -3.23794704       0.56591461      -0.53916107       0.00000000
Si      -0.85639789       3.32283423       1.13124361       0.00000000
Si       3.57348846      -0.95866651      -0.40707487       0.00000000
Si       1.55119897      -0.41725206      -3.46796588       0.00000000
