10
Lattice="16.2900001489832 0.0 0.0 0.0 16.2900001489832 0.0 0.0 0.0 28.998067450461" Properties=species:S:1:pos:R:3:initial_magmoms:R:1 pbc="T T T"
Si       1.69184684       0.20675268       1.60504303       0.00000000
Si       1.12253414      -1.59975946      -1.29650360       0.00000000
Si      -1.56266713      -0.21900276       1.73721622       0.00000000
Si      -0.01775610       2.24223707      -0.82876477       0.00000000
Si      -1.84231757       2.19369287       1.29099396       0.00000000
Si      -2.35297649      -0.20127924      -2.24949608       0.00000000
Si       2.42598827       2.15684489      -0.96056098       0.00000000
Si      -3.05610177       1.35904213      -0.61655691       0.00000000
Si      -2.26549919      -2.40168359       1.04758418       0.00000000
Si      -2.23634009      -2.32989356      -1.25309349       0.00000000
