10
Lattice="16.2900001489832 0.0 0.0 0.0 16.2900001489832 0.0 0.0 0.0 28.998067450461" Properties=species:S:1:pos:R:3:initial_magmoms:R:1 pbc="T T T"
Si       0.98225443       1.47139426       1.51137928       0.00000000
Si      -1.40625055      -1.45989352       1.17935140       0.00000000
Si      -1.11666322       1.14148918      -1.76943308       0.00000000
Si       1.74477305      -1.27731520      -1.10761018       0.00000000
Si      -1.97744312      -2.35752140      -0.91384510       0.00000000
Si      -2.45866601      -0.63635257      -2.50595499       0.00000000
Si       1.60529806       3.26547388       0.15221086       0.00000000
Si       2.43781481      -0.00848709       2.76301468       0.00000000
Si       0.65969614       1.92381644      -3.15661363       0.00000000
Si       3.38017503       0.32345424      -1.60365113       0.00000000
