10
Lattice="16.2900001489832 0.0 0.0 0.0 16.2900001489832 0.0 0.0 0.0 28.998067450461" Properties=species:S:1:pos:R:3:initial_magmoms:R:1 pbc="T T T"
Si      -0.37012509       2.08034705      -0.83705821       0.00000000
Si       0.22120191      -0.96083308      -2.09168860       0.00000000
Si       2.02134467      -0.27231993       1.11027801       0.00000000
Si      -1.88610476      -0.86853394       1.11285883       0.00000000
Si      -0.81078589      -2.92827414      -1.47336281       0.00000000
Si       1.10926756      -0.37769994       3.23772123       0.00000000
Si      -2.92654740       1.20515050       1.52387744       0.00000000
Si       1.56170602       2.53508240      -2.01722156       0.00000000
Si       2.42911595      -2.62006733       0.48971936       0.00000000
Si      -0.88777243      -1.76300156       3.01988774       0.00000000
