10
Lattice="16.2900001489832 0.0 0.0 0.0 16.2900001489832 0.0 0.0 0.0 28.998067450461" Properties=species:S:1:pos:R:3:initial_magmoms:R:1 pbc="T T T"
Si      -1.25803762       0.14432940       1.95954441       0.00000000
Si      -1.57427539      -0.63669466      -1.64053667       0.00000000
Si       0.83328075      -2.22369905      -0.17381442       0.00000000
Si       1.42007099       1.94083949       0.11518032       0.00000000
Si      -1.41339535      -2.82163980      -0.68188956       0.00000000
H       -2.03585254       1.18071550      -2.40654962       0.00000000
Si      -0.96773352       2.51481764       2.08278619       0.00000000
Si       3.39047683       0.44199657      -0.09775249       0.00000000
Si      -1.05786609       2.38221704      -2.27730523       0.00000000
Si      -0.21364840      -0.87001633      -3.47686829       0.00000000
