10
Lattice="16.2900001489832 0.0 0.0 0.0 16.2900001489832 0.0 0.0 0.0 28.998067450461" Properties=species:S:1:pos:R:3:initial_magmoms:R:1 pbc="T T T"
Si       1.65923426       0.57534652       1.56421375       0.00000000
Si      -2.08902962       0.48018033       1.00205722       0.00000000
Si      -0.49241412       1.56240649      -1.71549667       0.00000000
Si       0.09834273      -2.22060395      -0.84352478       0.00000000
H        1.45121095      -2.38213559       1.52840114       0.00000000
Si      -2.26512452       0.22524183      -2.60153262       0.00000000
Si       2.70008381      -1.51281973       1.60214323       0.00000000
Si      -0.71570116       3.49086395      -0.30242085       0.00000000
Si      -1.53339400      -1.97289821      -2.56670594       0.00000000
Si      -1.87002686       2.76693798       1.63728888       0.00000000
