10
Lattice="16.2900001489832 0.0 0.0 0.0 16.2900001489832 0.0 0.0 0.0 28.998067450461" Properties=species:S:1:pos:R:3:initial_magmoms:R:1 pbc="T T T"
Si       0.61388866      -0.79641811      -2.03064767       0.00000000
Si       1.53189532       0.00210141       1.68687558       0.00000000
Si      -0.18327879       2.22327551      -0.51816647       0.00000000
Si      -1.95866075      -0.84488086       0.84651159       0.00000000
H       -0.32775480      -0.19634337      -3.06103600       0.00000000
Si       2.05379435       2.56057625      -1.39063132       0.00000000
Si      -1.48012570       2.99226126       1.36737487       0.00000000
Si       1.87721075      -2.27478449       2.11552501       0.00000000
Si      -3.59370272       0.55245907      -0.00484268       0.00000000
Si      -1.56356308       2.33997707      -2.41977274       0.00000000
