10
Lattice="16.2900001489832 0.0 0.0 0.0 16.2900001489832 0.0 0.0 0.0 28.998067450461" Properties=species:S:1:pos:R:3:initial_magmoms:R:1 pbc="T T T"
Si       1.27436671      -1.63163899       1.10265151       0.00000000
Si       1.69929137       1.57537333       0.40133325       0.00000000
Si      -0.23314248      -0.85221136      -2.18773020       0.00000000
Si      -1.68331088       1.41105610       0.87295782       0.00000000
H       -1.82770544      -2.04724577       0.52988169       0.00000000
Si       3.38424753      -0.74994274       0.37076929       0.00000000
Si      -3.12364011      -1.64032156      -0.16824679       0.00000000
Si       1.18607491       2.45252468       2.57410045       0.00000000
Si       1.72994915      -2.12573099      -2.59112232       0.00000000
Si      -0.57537910       0.96089824      -3.60831653       0.00000000
