10
Lattice="16.2900001489832 0.0 0.0 0.0 16.2900001489832 0.0 0.0 0.0 28.998067450461" Properties=species:S:1:pos:R:3:initial_magmoms:R:1 pbc="T T T"
Si       0.18327879      -2.22327551       0.51816647       0.00000000
Si      -1.38028429       0.11670156      -1.90160627       0.00000000
Si      -1.29684691       0.76898575       1.88554134       0.00000000
Si       2.23707314       0.33730074      -0.87246486       0.00000000
Si       0.79716745      -3.01969362      -1.51248120       0.00000000
H       -0.14447601      -2.41961888      -2.54286953       0.00000000
Si       1.71517412      -2.22117410       2.20504205       0.00000000
Si      -0.62786548       2.94580218       2.08081433       0.00000000
Si       1.77681548       0.91761571      -3.13982375       0.00000000
Si       1.70548157       2.74654290       1.88307650       0.00000000
