10
Lattice="16.2900001489832 0.0 0.0 0.0 16.2900001489832 0.0 0.0 0.0 28.998067450461" Properties=species:S:1:pos:R:3:initial_magmoms:R:1 pbc="T T T"
Si      -1.25871202      -0.95703751      -1.69441508       0.00000000
Si      -1.58355091       1.46070802       0.97410308       0.00000000
Si       0.68230666      -1.84218725       1.33495503       0.00000000
Si       1.81848530       1.12769155      -1.03134527       0.00000000
Si       2.13866525       2.54091422       0.78033800       0.00000000
Si       0.43023519      -2.53317647      -2.25054001       0.00000000
Si      -3.19054314      -1.41177286      -0.51425173       0.00000000
Si       2.00713979      -2.91221220      -0.44546831       0.00000000
Si       1.58112370      -0.58161817       3.19973376       0.00000000
Si      -3.50125534       0.20054619       1.10152059       0.00000000
