10
Lattice="16.2900001489832 0.0 0.0 0.0 16.2900001489832 0.0 0.0 0.0 28.998067450461" Properties=species:S:1:pos:R:3:initial_magmoms:R:1 pbc="T T T"
Si       2.09636012       0.89687854       0.29859310       0.00000000
Si      -1.53560944       0.86804524       1.52906810       0.00000000
Si      -0.49337523       0.01601307      -2.29934376       0.00000000
Si      -0.36388602      -2.29558682       0.43871176       0.00000000
H        2.31075281       2.03403458      -1.08151192       0.00000000
Si      -2.69902496      -2.05455998      -0.22911373       0.00000000
Si      -3.52096950      -0.00785178       0.72776450       0.00000000
Si      -2.19141227      -1.66941551      -2.45158362       0.00000000
Si       1.33224508      -3.45235602      -0.80278250       0.00000000
Si       1.92740024       2.85772215       1.57500104       0.00000000
