10
Lattice="16.2900001489832 0.0 0.0 0.0 16.2900001489832 0.0 0.0 0.0 28.998067450461" Properties=species:S:1:pos:R:3:initial_magmoms:R:1 pbc="T T T"
Si       1.02511342      -0.84211156       1.89841648       0.00000000
Si      -0.79654843      -1.42301296      -1.67959706       0.00000000
Si       1.93691360       1.09939582      -0.74568530       0.00000000
Si      -1.77173300       1.47650932       0.66628860       0.00000000
Si      -2.45061875       1.45591876      -1.64639428       0.00000000
Si      -0.11746719       3.20416158       0.76192422       0.00000000
H        1.88063165       1.35847198      -2.39796619       0.00000000
Si      -0.69463819       3.06726042      -1.64100064       0.00000000
Si       2.79766092      -2.07218576       1.03453505       0.00000000
Si      -2.82190044      -2.23655186      -0.85321014       0.00000000
