10
Lattice="16.2900001489832 0.0 0.0 0.0 16.2900001489832 0.0 0.0 0.0 28.998067450461" Properties=species:S:1:pos:R:3:initial_magmoms:R:1 pbc="T T T"
Si       1.40172193      -1.37215558       1.23870105       0.00000000
Si      -1.09973791      -1.59640372      -1.31332247       0.00000000
Si      -1.41690421       1.40152645       1.23307664       0.00000000
Si       1.04153374       1.58796550      -1.37958306       0.00000000
H        2.18800766      -2.08353989       0.14252550       0.00000000
Si      -2.10994598       0.13269834      -2.63754822       0.00000000
Si      -0.47454399       1.73346779      -3.13358916       0.00000000
Si       0.12797424       2.56671758       2.59359875       0.00000000
Si      -2.70070283      -0.17440074       2.46925504       0.00000000
Si       2.82998028      -0.03793941       2.51629570       0.00000000
