10
Lattice="16.2900001489832 0.0 0.0 0.0 16.2900001489832 0.0 0.0 0.0 28.998067450461" Properties=species:S:1:pos:R:3:initial_magmoms:R:1 pbc="T T T"
Si      -2.00622755      -0.87563638      -0.84094396       0.00000000
Si       0.84502747      -1.99134012       1.01006069       0.00000000
Si      -1.25924959       0.82976374       1.87637795       0.00000000
Si       1.63064530       0.23278410      -1.93008237       0.00000000
Si       1.21378420       2.38988963      -0.06359276       0.00000000
H       -1.88828795       1.97428286      -0.63636259       0.00000000
H       -2.99525862       0.03736926      -0.14423639       0.00000000
H       -2.61552242       1.62274465       1.34890310       0.00000000
Si       2.94671442      -1.16887593       1.55998004       0.00000000
Si       3.50197536      -0.26632521      -0.54034999       0.00000000
