10
Lattice="16.2900001489832 0.0 0.0 0.0 16.2900001489832 0.0 0.0 0.0 28.998067450461" Properties=species:S:1:pos:R:3:initial_magmoms:R:1 pbc="T T T"
Si      -0.68819223       1.35256360       0.08731318       0.00000000
Si       0.21682805      -2.17487792      -1.40811716       0.00000000
Si      -1.08022738       1.62569152      -2.18364147       0.00000000
Si      -0.93407350      -2.69979059       0.66150391       0.00000000
Si      -1.89474367       1.04789173       2.00576733       0.00000000
Si       0.90464398       2.84211633       0.78813848       0.00000000
Si      -0.34647853      -0.45905220      -3.05033571       0.00000000
Si       2.60732367       1.39840203       1.27469705       0.00000000
Si       3.14784216       0.27541503      -0.77656825       0.00000000
Si       2.47886073      -1.90140140      -0.97184123       0.00000000
