10
Lattice="16.2900001489832 0.0 0.0 0.0 16.2900001489832 0.0 0.0 0.0 28.998067450461" Properties=species:S:1:pos:R:3:initial_magmoms:R:1 pbc="T T T"
H        0.40837401      -0.41098693       0.55215220       0.00000000
Si      -2.05754105      -0.51934801      -0.90346379       0.00000000
Si       1.21525030      -2.40726129      -0.98312148       0.00000000
Si      -0.07866441       2.59699418       1.22876411       0.00000000
Si      -0.63491905      -1.70061737      -2.23702692       0.00000000
Si       1.51855381       0.99673624       2.27852315       0.00000000
H       -2.61071687      -1.48599662       0.34003134       0.00000000
Si       1.89493427       1.07935423      -2.21542336       0.00000000
Si       0.92963773       2.82322970      -0.92877910       0.00000000
Si       2.87956704      -0.65046622      -1.01844113       0.00000000
