10
Lattice="16.2900001489832 0.0 0.0 0.0 16.2900001489832 0.0 0.0 0.0 28.998067450461" Properties=species:S:1:pos:R:3:initial_magmoms:R:1 pbc="T T T"
Si       0.94164346      -0.60007474       1.03038833       0.00000000
Si       0.75787597       0.41462937      -2.35513604       0.00000000
Si      -2.40645656      -1.13692798      -0.40084029       0.00000000
Si      -0.80141914      -1.32952465      -2.23717191       0.00000000
Si      -0.06406857       2.46133757      -1.39825781       0.00000000
Si      -1.23580828       2.53632044       0.64126326       0.00000000
Si       0.32775480       0.19634337       3.06103600       0.00000000
Si      -2.85420839       0.88384654       0.79335813       0.00000000
Si       1.16747173      -2.88870573       0.91822381       0.00000000
Si       3.23794704      -0.56591461       0.53916107       0.00000000
