10
Lattice="16.2900001489832 0.0 0.0 0.0 16.2900001489832 0.0 0.0 0.0 28.998067450461" Properties=species:S:1:pos:R:3:initial_magmoms:R:1 pbc="T T T"
Si       0.55317583       0.96664861      -1.24349513       0.00000000
Si      -0.21439269      -1.13715604       1.38010502       0.00000000
H       -0.02233359       1.97134414       1.72593598       0.00000000
Si      -0.38335257       0.82368757       2.65651296       0.00000000
H        2.61071687       1.48599662      -0.34003134       0.00000000
H        3.01909089       1.07500969       0.21212086       0.00000000
Si       1.97579783      -0.21462075      -2.57705825       0.00000000
Si      -2.31075281      -2.03403458       1.08151192       0.00000000
Si       1.54207657      -2.69086367       1.04477137       0.00000000
Si      -0.79586425       2.43587956      -2.36630030       0.00000000
