10
Lattice="16.2900001489832 0.0 0.0 0.0 16.2900001489832 0.0 0.0 0.0 28.998067450461" Properties=species:S:1:pos:R:3:initial_magmoms:R:1 pbc="T T T"
H       -1.02291427       1.12664736      -0.25579224       0.00000000
Si       0.96526070       0.02526416      -2.07952681       0.00000000
Si       1.75223875       1.03628347       1.10233254       0.00000000
Si      -1.23636214      -1.68723188       1.04129160       0.00000000
H        2.20887515      -0.78588988      -2.23626137       0.00000000
H        1.72007089      -2.45678778      -1.29280924       0.00000000
Si       0.22594230       2.30635940       2.40329023       0.00000000
Si      -2.55739970      -0.36229400       2.45255215       0.00000000
Si      -0.72858655      -0.75471082      -3.41077009       0.00000000
Si       2.11310461       2.07166937      -2.29022677       0.00000000
