10
Lattice="16.2900001489832 0.0 0.0 0.0 16.2900001489832 0.0 0.0 0.0 28.998067450461" Properties=species:S:1:pos:R:3:initial_magmoms:R:1 pbc="T T T"
Si       1.09580713      -1.52911625       1.34330358       0.00000000
Si      -1.75223875      -1.03628347      -1.10233254       0.00000000
Si      -1.52629645       1.27007593       1.30095770       0.00000000
Si       1.85153282       0.63070971      -1.59056140       0.00000000
H       -2.77515302       0.09036389      -1.35812478       0.00000000
Si      -0.78697805      -1.01101931      -3.18185935       0.00000000
Si       2.45667375       2.43490868      -0.09799607       0.00000000
Si       0.36086586       1.03538589      -3.39255931       0.00000000
Si       2.45063016      -0.10866733       2.65034797       0.00000000
Si       2.31638426      -2.87760246      -0.13596904       0.00000000
