10
Lattice="16.2900001489832 0.0 0.0 0.0 16.2900001489832 0.0 0.0 0.0 28.998067450461" Properties=species:S:1:pos:R:3:initial_magmoms:R:1 pbc="T T T"
Si      -1.25924308      -1.40908501      -1.35176811       0.00000000
Si       1.35807125       1.23582457      -1.44750233       0.00000000
Si      -1.38806440       1.33563340       1.32657459       0.00000000
Si       1.35740336      -1.38642562       1.32097796       0.00000000
Si      -0.02275876       2.69935076       2.62580401       0.00000000
Si      -2.75572394      -0.07508061      -2.57987107       0.00000000
Si       0.26705338      -2.67916094      -2.65272581       0.00000000
Si       2.72027364       2.62765847      -0.10824979       0.00000000
Si      -0.01541686      -2.80911767       2.57027271       0.00000000
Si      -0.01034578       2.72520299      -2.66405246       0.00000000
