10
Lattice="16.2900001489832 0.0 0.0 0.0 16.2900001489832 0.0 0.0 0.0 28.998067450461" Properties=species:S:1:pos:R:3:initial_magmoms:R:1 pbc="T T T"
H        0.97655293      -1.07152363       0.82108028       0.00000000
Si      -1.23856129      -1.34745994      -1.41820848       0.00000000
Si       1.37919286       1.34014573      -1.30067932       0.00000000
Si      -1.59871690       0.63726481       1.57804583       0.00000000
Si       1.03283488      -1.33059979       2.47336117       0.00000000
H        2.94971178       0.04240287       1.94101464       0.00000000
Si      -2.65082285      -2.52626951      -0.07278515       0.00000000
Si       2.74818819      -0.19073961      -2.45541136       0.00000000
Si       2.60012837       2.67970502       0.13394207       0.00000000
Si      -2.77208562      -0.02191005      -2.54255055       0.00000000
