10
Lattice="16.2900001489832 0.0 0.0 0.0 16.2900001489832 0.0 0.0 0.0 28.998067450461" Properties=species:S:1:pos:R:3:initial_magmoms:R:1 pbc="T T T"
Si      -1.37282021      -1.42269205       1.24929474       0.00000000
Si      -1.35740336       1.38642562      -1.32097796       0.00000000
Si       1.31595508       1.33877737       1.42754586       0.00000000
Si       1.36028017      -1.40140265      -1.32335581       0.00000000
Si      -2.61664643      -0.02265939      -2.67274608       0.00000000
Si      -2.74836738      -0.09410733       2.56229824       0.00000000
Si       2.67068036       2.69966027       0.04146724       0.00000000
Si       2.74458810      -0.04606812      -2.62888360       0.00000000
Si      -0.04908177      -2.71030595       2.67278087       0.00000000
Si       0.00066789       2.62225019      -2.76848030       0.00000000
