10
Lattice="16.2900001489832 0.0 0.0 0.0 16.2900001489832 0.0 0.0 0.0 28.998067450461" Properties=species:S:1:pos:R:3:initial_magmoms:R:1 pbc="T T T"
Si      -1.31595508      -1.33877737      -1.42754586       0.00000000
Si       1.35472528       1.36088290      -1.38607863       0.00000000
Si      -1.39448917       1.42640128       1.28632527       0.00000000
Si       1.34838847      -1.42822576       1.33933374       0.00000000
Si       2.71904537       0.03080439       2.53924477       0.00000000
Si      -2.82865264       0.00040725       2.48098766       0.00000000
Si      -2.67335844       0.04764825      -2.74852383       0.00000000
Si      -2.69611720       2.74699902      -0.12271982       0.00000000
Si      -0.06630030      -2.73586480       2.71059435       0.00000000
Si       2.73662228       0.00884547      -2.71740890       0.00000000
