10
Lattice="16.2900001489832 0.0 0.0 0.0 16.2900001489832 0.0 0.0 0.0 28.998067450461" Properties=species:S:1:pos:R:3:initial_magmoms:R:1 pbc="T T T"
Si       1.41088506      -1.36031275      -1.25202636       0.00000000
Si       1.38722872       1.31619943       1.32798970       0.00000000
Si      -1.30155472      -1.33721353       1.43531154       0.00000000
Si      -1.31453785       1.28352169      -1.51522732       0.00000000
H       -1.17801136      -1.64740772      -2.86291250       0.00000000
Si      -2.48834639      -0.42034716      -2.62968105       0.00000000
Si       0.00413766      -2.76004731      -2.42934500       0.00000000
Si      -2.64694583       2.66810654      -0.13987508       0.00000000
Si       0.00148239       2.63406044       2.69542257       0.00000000
Si       2.75180457       2.59335173      -0.10865286       0.00000000
