10
Lattice="16.2900001489832 0.0 0.0 0.0 16.2900001489832 0.0 0.0 0.0 28.998067450461" Properties=species:S:1:pos:R:3:initial_magmoms:R:1 pbc="T T T"
Si      -1.38767995       1.37671678       1.32756053       0.00000000
Si      -1.36220239      -1.39183390      -1.33925255       0.00000000
Si       1.30781008      -1.31442382       1.47069499       0.00000000
Si       1.30049587       1.42671079      -1.37079374       0.00000000
Si      -2.73061942       0.09754452      -2.55580267       0.00000000
Si       2.68016114       0.03515382      -2.65237783       0.00000000
Si      -2.72027364      -2.62765847       0.10824979       0.00000000
Si       2.68970708      -2.66646125       0.13936471       0.00000000
Si      -0.03824892       2.75152764       2.67127298       0.00000000
Si       2.68182272       2.78047497      -0.01426705       0.00000000
