10
Lattice="16.2900001489832 0.0 0.0 0.0 16.2900001489832 0.0 0.0 0.0 28.998067450461" Properties=species:S:1:pos:R:3:initial_magmoms:R:1 pbc="T T T"
Si       1.67187530      -1.64306969       0.40942371       0.00000000
Si       0.03844440       2.25037067       0.84395976       0.00000000
Si       0.72852139       0.50985257      -2.23737489       0.00000000
Si      -2.29098538      -0.88382536      -0.00893140       0.00000000
H       -0.71877997      -0.66140170       3.09128098       0.00000000
Si       0.32987250      -3.42091143      -0.32709820       0.00000000
Si      -0.97415830       1.95356686      -2.72393347       0.00000000
Si      -1.23655762       3.26681781      -0.85964771       0.00000000
Si       2.85412206       1.29076748      -1.78529502       0.00000000
Si       3.44823465      -0.86074243      -0.97775684       0.00000000
