10
Lattice="16.2900001489832 0.0 0.0 0.0 16.2900001489832 0.0 0.0 0.0 28.998067450461" Properties=species:S:1:pos:R:3:initial_magmoms:R:1 pbc="T T T"
Si       1.35506737       1.34267068      -1.35921482       0.00000000
Si       1.37744983      -1.29381697       1.40011369       0.00000000
Si      -1.34726446       1.35514882       1.37511736       0.00000000
Si      -1.35182566      -1.37862271      -1.37928438       0.00000000
Si      -0.09896175       2.67574655      -2.64730027       0.00000000
Si       2.71969697      -2.64935675       0.01887774       0.00000000
Si      -2.71640151      -2.65577501       0.05735818       0.00000000
Si      -0.00037467      -2.67830408       2.70441777       0.00000000
Si      -2.67837576      -0.02376711       2.72457142       0.00000000
Si      -2.75949507       2.65903301       0.03914739       0.00000000
