10
Lattice="16.2900001489832 0.0 0.0 0.0 16.2900001489832 0.0 0.0 0.0 28.998067450461" Properties=species:S:1:pos:R:3:initial_magmoms:R:1 pbc="T T T"
Si      -1.46384385       1.28098045       1.24213222       0.00000000
Si      -1.38200289      -1.33213105      -1.34551033       0.00000000
Si       1.28374161      -1.25991748       1.54263919       0.00000000
Si       1.32914184       1.36539523      -1.41380078       0.00000000
Si      -0.11218434       2.66463677       2.44474007       0.00000000
Si       2.62401766      -2.50546718       0.00838044       0.00000000
Si      -0.01057221      -2.59284674      -2.76366082       0.00000000
Si      -2.74725151       0.11122812      -2.65236624       0.00000000
Si      -2.72381020      -0.04978224       2.69223858       0.00000000
Si      -2.81096170      -2.67224420      -0.00379875       0.00000000
