10
Lattice="16.2900001489832 0.0 0.0 0.0 16.2900001489832 0.0 0.0 0.0 28.998067450461" Properties=species:S:1:pos:R:3:initial_magmoms:R:1 pbc="T T T"
Si       1.13888278       1.64414646      -1.20665221       0.00000000
Si      -1.22057713       1.34848621       1.47927262       0.00000000
Si       1.45402912      -1.33307587       1.28808546       0.00000000
Si      -1.27464364      -1.36984240      -1.49255083       0.00000000
H       -2.34855213      -0.61546879      -2.25917274       0.00000000
Si      -2.31638426       2.87760246       0.13596904       0.00000000
Si       2.62982504       0.40366620      -2.60366978       0.00000000
Si       0.09896175      -2.67574655       2.64730027       0.00000000
Si      -2.66053332      -0.01671354       2.68644766       0.00000000
Si      -2.59892128      -2.75188602      -0.15008820       0.00000000
