10
Lattice="16.2900001489832 0.0 0.0 0.0 16.2900001489832 0.0 0.0 0.0 28.998067450461" Properties=species:S:1:pos:R:3:initial_magmoms:R:1 pbc="T T T"
Si      -1.30798927      -1.39369096      -1.33902056       0.00000000
Si      -1.38189700       1.35203743       1.33133027       0.00000000
Si       1.32693454      -1.37850868       1.36108229       0.00000000
Si       1.33977106       1.33670854      -1.40970335       0.00000000
Si       2.74488132      -0.12250080      -2.60511678       0.00000000
Si      -2.68970708       2.66646125      -0.13936471       0.00000000
Si       2.72456768      -0.01674612       2.66741623       0.00000000
Si      -0.01523115       2.72994339       2.66506739       0.00000000
Si       2.69832449       2.71368596      -0.08748717       0.00000000
Si       2.63057438      -2.78996063       0.01887774       0.00000000
