10
Lattice="16.2900001489832 0.0 0.0 0.0 16.2900001489832 0.0 0.0 0.0 28.998067450461" Properties=species:S:1:pos:R:3:initial_magmoms:R:1 pbc="T T T"
Si      -1.37156914       1.33811600       1.35519568       0.00000000
Si      -1.29422422      -1.33473094      -1.44192890       0.00000000
Si       1.34359921       1.39667855      -1.34046467       0.00000000
Si       1.28181124      -1.37526046       1.42838681       0.00000000
Si       2.64723905      -0.01477340      -2.68266922       0.00000000
Si      -0.00091224       2.79714615       2.55510672       0.00000000
Si       2.66483225      -2.70524123       0.00997534       0.00000000
Si      -2.75348244      -2.63117060      -0.15508166       0.00000000
Si      -2.67563252       0.02616174      -2.73503973       0.00000000
Si      -0.20921247      -2.65677848       2.79393480       0.00000000
