10
Lattice="16.2900001489832 0.0 0.0 0.0 16.2900001489832 0.0 0.0 0.0 28.998067450461" Properties=species:S:1:pos:R:3:initial_magmoms:R:1 pbc="T T T"
Si      -1.22093551      -1.33955929      -1.43462139       0.00000000
Si       1.52230051       1.43975908      -1.09412608       0.00000000
Si       1.28397781      -1.61129278       1.17123194       0.00000000
Si      -1.69613111       1.15676920       1.24149426       0.00000000
H        0.34958340      -2.63730215       1.80707257       0.00000000
Si       0.10573839       2.62254341      -2.61014505       0.00000000
Si       2.02228949      -0.54141445       3.06089101       0.00000000
Si      -2.60012837      -2.67970502      -0.13394207       0.00000000
Si       2.78813127      -0.02774187      -2.54014371       0.00000000
Si      -1.33224508       3.45235602       0.80278250       0.00000000
