10
Lattice="16.2900001489832 0.0 0.0 0.0 16.2900001489832 0.0 0.0 0.0 28.998067450461" Properties=species:S:1:pos:R:3:initial_magmoms:R:1 pbc="T T T"
Si      -1.37966527       1.39155697       1.28158409       0.00000000
Si      -1.42416955      -1.40649490      -1.22152039       0.00000000
Si       1.37215558       1.28093158      -1.42298157       0.00000000
Si       1.34931700      -1.36490653       1.38203920       0.00000000
Si       0.07436385      -2.58566285      -2.52960582       0.00000000
Si      -2.68016114      -0.03515382       2.65237783       0.00000000
Si       0.00166158       2.74532115       2.63811079       0.00000000
Si       2.70787043       0.01207089       2.70425538       0.00000000
Si      -2.74841625       2.67103874      -0.19945741       0.00000000
Si       0.01780497       2.60284880      -2.83133071       0.00000000
