10
Lattice="16.2900001489832 0.0 0.0 0.0 16.2900001489832 0.0 0.0 0.0 28.998067450461" Properties=species:S:1:pos:R:3:initial_magmoms:R:1 pbc="T T T"
Si       1.29919267      -1.41431410      -1.32193490       0.00000000
Si      -1.43920522      -1.29596725       1.31251053       0.00000000
Si      -1.43597980       1.37119447      -1.30027334       0.00000000
Si       1.24530535       1.35402481       1.51680191       0.00000000
Si      -2.38409039       0.51442191       2.47814585       0.00000000
Si      -0.68605336       2.19985049       2.63038570       0.00000000
Si       2.62089812       2.62917344       0.07530798       0.00000000
Si      -0.08136855      -2.60807789       2.69232557       0.00000000
Si       2.61237845      -2.70720254       0.16978368       0.00000000
Si       2.63788859      -0.06783156      -2.70699859       0.00000000
