10
Lattice="16.2900001489832 0.0 0.0 0.0 16.2900001489832 0.0 0.0 0.0 28.998067450461" Properties=species:S:1:pos:R:3:initial_magmoms:R:1 pbc="T T T"
Si       1.41690421      -1.40152645      -1.23307664       0.00000000
Si       1.54487845       1.16519113       1.36052211       0.00000000
Si      -1.28379862      -1.57592719       1.23617839       0.00000000
Si      -1.45556038       1.47988135      -1.25163541       0.00000000
Si       2.45843795       0.18643905      -2.61265970       0.00000000
Si       0.12634524       2.50279562       2.69230765       0.00000000
Si      -2.43781481       0.00848709      -2.76301468       0.00000000
Si      -2.63135630      -0.25686072       2.64011983       0.00000000
Si       0.10441890      -2.92196991       2.61755643       0.00000000
Si       2.81022051      -0.24936732       2.73500731       0.00000000
