10
Lattice="16.2900001489832 0.0 0.0 0.0 16.2900001489832 0.0 0.0 0.0 28.998067450461" Properties=species:S:1:pos:R:3:initial_magmoms:R:1 pbc="T T T"
H        0.21439269       1.13715604      -1.38010502       0.00000000
Si      -2.09636012      -0.89687854      -0.29859310       0.00000000
Si      -0.16895988       1.96084361       1.27640793       0.00000000
Si       1.75646927      -1.55370763      -0.33533365       0.00000000
H        0.19205910       3.10850018       0.34583095       0.00000000
Si       0.76756852       2.10380465      -2.62360015       0.00000000
Si       1.72139690       1.82623934       2.59642896       0.00000000
Si       0.75818548      -2.90947548      -2.19550168       0.00000000
Si       3.69667344      -0.13869306      -0.43760984       0.00000000
Si      -2.58973535      -0.88086547      -2.59793686       0.00000000
