10
Lattice="16.2900001489832 0.0 0.0 0.0 16.2900001489832 0.0 0.0 0.0 28.998067450461" Properties=species:S:1:pos:R:3:initial_magmoms:R:1 pbc="T T T"
Si      -0.78568300      -1.79286113      -1.28128425       0.00000000
Si       1.37127592      -1.31317878       1.38297873       0.00000000
Si       0.86121973       1.84805165      -1.17005752       0.00000000
Si      -1.41385798       1.22489398       1.43578421       0.00000000
H        2.90576136       0.17576259      -1.32536566       0.00000000
Si      -0.91116487       3.44414586      -1.06927184       0.00000000
Si      -2.72127710       2.60325605       0.11148307       0.00000000
Si       2.69231348      -2.63811665      -0.02828182       0.00000000
Si      -0.07910424      -2.70506855       2.63586923       0.00000000
Si       2.65813706       2.68947902       0.10561386       0.00000000
