10
Lattice="16.2900001489832 0.0 0.0 0.0 16.2900001489832 0.0 0.0 0.0 28.998067450461" Properties=species:S:1:pos:R:3:initial_magmoms:R:1 pbc="T T T"
Si       1.39098682      -1.33144687       1.30743587       0.00000000
Si       1.41959206       1.38978136      -1.23372278       0.00000000
Si      -1.36267480       1.38061009       1.33130128       0.00000000
Si      -1.35700588      -1.48268323      -1.24268318       0.00000000
Si      -2.66442500      -0.10432116      -2.56698433       0.00000000
Si      -0.04346172      -2.67174247       2.58378581       0.00000000
Si       0.04833243       2.60633486      -2.67551539       0.00000000
Si       2.71498916      -0.01809819      -2.57285353       0.00000000
Si       2.70140330       0.03800457       2.67066402       0.00000000
Si       0.05685210      -2.70757721      -2.67846740       0.00000000
