10
Lattice="16.2900001489832 0.0 0.0 0.0 16.2900001489832 0.0 0.0 0.0 28.998067450461" Properties=species:S:1:pos:R:3:initial_magmoms:R:1 pbc="T T T"
Si      -1.36899532       1.53088534       1.15473204       0.00000000
Si      -1.32981787      -1.29437083      -1.45521002       0.00000000
Si       1.32475168       1.43176069      -1.36780984       0.00000000
Si       1.36158337      -1.41618745       1.38735454       0.00000000
Si      -2.74818819       0.19073961       2.45541136       0.00000000
Si       2.66333357      -2.59939532      -0.17859910       0.00000000
Si      -2.73970110      -2.63474462      -0.19721586       0.00000000
H       -1.77163526      -0.88078402       3.27649164       0.00000000
Si       2.75517660      -0.06747318       2.69574734       0.00000000
Si       0.00244350      -2.67344966      -2.78645330       0.00000000
