10
Lattice="16.2900001489832 0.0 0.0 0.0 16.2900001489832 0.0 0.0 0.0 28.998067450461" Properties=species:S:1:pos:R:3:initial_magmoms:R:1 pbc="T T T"
Si      -0.98225443      -1.47139426      -1.51137928       0.00000000
Si       0.62304364       1.79407962      -1.35916842       0.00000000
Si      -1.49094226       1.24048025       1.39701757       0.00000000
Si       1.45556038      -1.47988135       1.25163541       0.00000000
Si       0.16400772       2.38036813       2.65461939       0.00000000
Si      -2.62982504      -0.40366620       2.60366978       0.00000000
Si       2.54223371       2.71094924      -0.48041098       0.00000000
Si      -0.94149685       3.52527006      -0.89870811       0.00000000
Si      -2.38850498      -2.93128779      -0.33202787       0.00000000
Si       1.49363011       0.98930800      -3.37320020       0.00000000
