10
Lattice="16.2900001489832 0.0 0.0 0.0 16.2900001489832 0.0 0.0 0.0 28.998067450461" Properties=species:S:1:pos:R:3:initial_magmoms:R:1 pbc="T T T"
Si       1.26534205      -1.41455845       1.37448520       0.00000000
Si      -1.41853321       1.33760449       1.33178554       0.00000000
Si      -1.54487845      -1.16519113      -1.36052211       0.00000000
Si       1.87675463       0.91036666      -1.18656206       0.00000000
Si      -0.12797424      -2.56671758      -2.59359875       0.00000000
Si       2.70200603      -2.60465699      -0.07730305       0.00000000
Si       2.58333338      -0.00184077       2.73059142       0.00000000
Si       1.13256226       1.30800556      -3.33795015       0.00000000
Si       2.66243762       2.70322778       0.09472219       0.00000000
Si      -2.80851006      -0.04603554       2.64307525       0.00000000
