10
Lattice="16.2900001489832 0.0 0.0 0.0 16.2900001489832 0.0 0.0 0.0 28.998067450461" Properties=species:S:1:pos:R:3:initial_magmoms:R:1 pbc="T T T"
Si       0.63039043      -0.43974855       2.16499572       0.00000000
Si       2.08971380       0.14457375      -0.96337380       0.00000000
Si      -1.49278303       1.78737140      -0.08044064       0.00000000
Si      -0.93827143      -1.73408681      -1.27179724       0.00000000
H       -2.29454426      -0.94110589      -1.79927209       0.00000000
Si      -3.12373785       0.44307171      -1.12666191       0.00000000
Si       1.53476236      -0.17396091      -3.21176795       0.00000000
Si       3.18891414      -1.84186145      -0.13942271       0.00000000
Si       2.78897835       2.37703682      -0.42885242       0.00000000
Si       2.40277502      -2.03584277       2.06421003       0.00000000
