10
Lattice="16.2900001489832 0.0 0.0 0.0 16.2900001489832 0.0 0.0 0.0 28.998067450461" Properties=species:S:1:pos:R:3:initial_magmoms:R:1 pbc="T T T"
Si       1.44904438       1.35509995       1.26274985       0.00000000
Si      -1.32204754       1.28818063      -1.46306850       0.00000000
Si      -1.35594703      -1.29774286       1.44854046       0.00000000
Si       1.40243869      -1.35492076      -1.34855513       0.00000000
Si       2.68584635      -0.18516843       2.54594333       0.00000000
Si      -2.66274713       2.62769105      -0.06295480       0.00000000
Si      -2.67126680      -2.70868493       0.03152090       0.00000000
Si       2.78456376       2.61470792      -0.20403040       0.00000000
Si       0.04256577      -2.64279188      -2.77726091       0.00000000
Si       0.00408879      -2.79160104       2.68551103       0.00000000
