10
Lattice="16.2900001489832 0.0 0.0 0.0 16.2900001489832 0.0 0.0 0.0 28.998067450461" Properties=species:S:1:pos:R:3:initial_magmoms:R:1 pbc="T T T"
Si       1.33551937       1.25960797      -1.46678025       0.00000000
Si      -1.44904438      -1.35509995      -1.26274985       0.00000000
Si       1.23680197      -1.54026838       1.28319348       0.00000000
Si      -0.78864778       1.94002499       1.12405209       0.00000000
Si       2.58846148      -0.15661206       2.48580134       0.00000000
Si       2.61107688       2.67043601      -0.12309680       0.00000000
Si      -2.63881712       2.64666890      -0.12985335       0.00000000
Si      -0.04660569      -2.71002071      -2.61130497       0.00000000
Si      -0.06512742       2.65844657      -2.73648963       0.00000000
Si      -2.80499142      -2.65284281       0.18579062       0.00000000
