10
Lattice="16.2900001489832 0.0 0.0 0.0 16.2900001489832 0.0 0.0 0.0 28.998067450461" Properties=species:S:1:pos:R:3:initial_magmoms:R:1 pbc="T T T"
Si       0.20979891       1.51345504      -1.68264186       0.00000000
Si       1.70267969      -1.44371430       0.48655857       0.00000000
Si      -1.59283621      -1.48955273      -0.70082529       0.00000000
Si      -0.26239932       1.31325094       1.86428576       0.00000000
H       -2.40023378       1.32914998      -0.91367111       0.00000000
H       -0.90464398      -2.84211633      -0.78813848       0.00000000
Si      -0.06690303       0.05515794      -3.40608400       0.00000000
Si      -1.76292011       2.73171900      -1.21040833       0.00000000
Si       0.97415830      -1.95356686       2.72393347       0.00000000
Si      -2.79938766      -1.79422460       1.21762885       0.00000000
