10
Lattice="16.2900001489832 0.0 0.0 0.0 16.2900001489832 0.0 0.0 0.0 28.998067450461" Properties=species:S:1:pos:R:3:initial_magmoms:R:1 pbc="T T T"
Si       0.99833233      -0.89446762       1.90702891       0.00000000
Si       1.88610476       0.86853394      -1.11285883       0.00000000
Si      -1.04044264       2.07368444       0.41101861       0.00000000
Si      -0.94413615      -1.30473127      -1.76308250       0.00000000
H       -1.46422699      -1.75524752       1.47568265       0.00000000
Si       1.07531887      -2.05974020      -2.58622164       0.00000000
Si      -2.44136636       0.34044471      -2.50737590       0.00000000
Si      -0.54768642      -0.16115697       3.51465567       0.00000000
Si      -1.73853430       2.52312554      -1.81774386       0.00000000
H       -1.72983544       0.95148262       3.08108816       0.00000000
