10
Lattice="16.2900001489832 0.0 0.0 0.0 16.2900001489832 0.0 0.0 0.0 28.998067450461" Properties=species:S:1:pos:R:3:initial_magmoms:R:1 pbc="T T T"
Si      -1.71136226      -1.58278203      -0.00852543       0.00000000
Si      -0.08552250       0.70034457       2.23595399       0.00000000
Si      -0.87364900       1.79410242      -1.29725755       0.00000000
Si       2.11655972      -0.57307895      -0.96230087       0.00000000
Si      -2.13017816       1.82080173       2.18195959       0.00000000
Si       1.15170301       2.60764132      -2.12364447       0.00000000
Si       2.13983813       0.63238269      -2.91856849       0.00000000
Si      -0.57249577      -3.63015812       0.04091627       0.00000000
Si      -2.53430374      -1.53216900      -2.20385313       0.00000000
Si      -2.38067764       2.84146798       0.14617926       0.00000000
