10
Lattice="16.2900001489832 0.0 0.0 0.0 16.2900001489832 0.0 0.0 0.0 28.998067450461" Properties=species:S:1:pos:R:3:initial_magmoms:R:1 pbc="T T T"
Si       0.36163800       2.17447067       0.68194755       0.00000000
Si       0.62128432      -1.42680853       1.71529369       0.00000000
Si       1.43360146      -0.49348926      -1.78230822       0.00000000
Si      -2.33334704       0.19925928       0.19773782       0.00000000
Si      -2.59879259       1.70066135      -1.58964506       0.00000000
Si      -0.74826487       2.10316119       2.70108299       0.00000000
Si      -0.15415227      -0.04834872       3.50862117       0.00000000
Si      -1.00074358       3.26757855      -0.86318547       0.00000000
Si       3.44246799      -0.62312509      -0.56018467       0.00000000
Si      -3.00232848      -1.97755715       0.00246484       0.00000000
