10
Lattice="16.2900001489832 0.0 0.0 0.0 16.2900001489832 0.0 0.0 0.0 28.998067450461" Properties=species:S:1:pos:R:3:initial_magmoms:R:1 pbc="T T T"
Si      -1.55061253       1.29749851      -1.14443773       0.00000000
Si      -0.23584662      -2.31625883      -0.23065063       0.00000000
Si      -0.51559479       0.75438991       2.16084899       0.00000000
Si       2.15964677       0.83370592      -0.44222053       0.00000000
H       -2.80559415       1.37314927      -0.29882509       0.00000000
Si       1.43493724       3.09195606      -0.59303948       0.00000000
Si       3.08294769       0.27854271       1.72660293       0.00000000
H        2.01482867      -1.05555943      -2.76273288       0.00000000
Si       0.23325651      -2.74913301      -2.54974207       0.00000000
Si       0.81585208      -3.31472181       1.64996104       0.00000000
