10
Lattice="16.2900001489832 0.0 0.0 0.0 16.2900001489832 0.0 0.0 0.0 28.998067450461" Properties=species:S:1:pos:R:3:initial_magmoms:R:1 pbc="T T T"
Si       0.84463651       2.16272558       0.31132325       0.00000000
Si       1.81307702      -1.46912995      -0.39791148       0.00000000
Si      -2.36946197       0.26772615      -0.59309747       0.00000000
Si      -0.64209642      -1.03125475       2.19120997       0.00000000
Si       0.01834254      -0.30625200      -2.56070334       0.00000000
Si      -2.65976606      -2.10276209      -0.71633926       0.00000000
Si      -2.59990031       2.45708588       0.45695155       0.00000000
Si      -0.79040547       3.56006550      -0.54003101       0.00000000
Si      -2.01396530      -2.81489574       1.38175791       0.00000000
Si      -1.40172845      -2.24709149      -2.67588367       0.00000000
