10
Lattice="16.2900001489832 0.0 0.0 0.0 16.2900001489832 0.0 0.0 0.0 28.998067450461" Properties=species:S:1:pos:R:3:initial_magmoms:R:1 pbc="T T T"
H       -0.05628195       0.25907616      -1.65228089       0.00000000
Si       1.71830180      -1.57165921       0.22780882       0.00000000
Si      -1.93691360      -1.09939582       0.74568530       0.00000000
Si       0.29248695       2.02160531       1.23456372       0.00000000
H        1.91687690       1.37300266      -0.53234652       0.00000000
Si      -1.03283488       1.33059979      -2.47336117       0.00000000
Si      -2.05438079       2.10476576       1.50760953       0.00000000
Si      -0.91180018      -1.94150738       2.64410179       0.00000000
Si      -2.63155178       1.96786460      -0.89531533       0.00000000
Si       1.47939265       0.98376940       2.99065769       0.00000000
