10
Lattice="16.2900001489832 0.0 0.0 0.0 16.2900001489832 0.0 0.0 0.0 28.998067450461" Properties=species:S:1:pos:R:3:initial_magmoms:R:1 pbc="T T T"
Si      -1.75646927       1.55370763       0.33533365       0.00000000
Si       0.26669988      -1.14038146       2.09183359       0.00000000
Si       1.94020418       1.41501457      -0.10227618       0.00000000
Si      -0.99828379      -1.35576784      -1.86016803       0.00000000
H        2.25041465      -2.04797882       0.06217186       0.00000000
H       -1.54207657       2.69086367      -1.04477137       0.00000000
Si       2.28389060       1.76959901      -2.36792419       0.00000000
Si      -2.52058430      -2.79552693      -0.76604195       0.00000000
Si      -3.85282939       0.65682910       0.03674055       0.00000000
Si       1.90547390       3.01565370       1.69592298       0.00000000
