10
Lattice="16.2900001489832 0.0 0.0 0.0 16.2900001489832 0.0 0.0 0.0 28.998067450461" Properties=species:S:1:pos:R:3:initial_magmoms:R:1 pbc="T T T"
Si       0.64580077      -0.71213365       2.09809717       0.00000000
Si      -1.97679152      -1.22277628       0.04659989       0.00000000
Si       1.25803762      -0.14432940      -1.95954441       0.00000000
Si       0.29030409       2.37048824       0.12324179       0.00000000
H        0.00848709      -2.11470266       2.39483440       0.00000000
Si      -1.34120458       0.34137324       2.95095934       0.00000000
Si       2.65976606       2.10276209       0.71633926       0.00000000
Si      -1.45784098       2.46998756       1.95455674       0.00000000
Si      -3.02849022      -0.22431330      -1.83401177       0.00000000
Si      -0.63299683       2.92565145      -2.04558167       0.00000000
