10
Lattice="10.86 0.0 0.0 0.0 10.86 0.0 0.0 0.0 10.86" Properties=species:S:1:pos:R:3:initial_magmoms:R:1 pbc="T T T"
Si       1.38301014      -1.27317210      -1.20209340       0.00000000
Si      -1.33198986       1.44182790      -1.20209340       0.00000000
Si       1.38301014       1.44182790       1.51290660       0.00000000
Si      -2.60783352       0.24657630      -2.34350112       0.00000000
Si       2.74051014       0.08432790      -2.55959340       0.00000000
Si       0.11751606      -2.55565122      -2.76834432       0.00000000
Si       0.02551014       2.79932790      -2.55959340       0.00000000
Si       2.74051014      -2.63067210       0.15540660       0.00000000
Si      -0.15369072      -2.69154240       2.75762550       0.00000000
Si      -2.68948986       2.79932790       0.15540660       0.00000000
