10
Lattice="10.86 0.0 0.0 0.0 10.86 0.0 0.0 0.0 10.86" Properties=species:S:1:pos:R:3:initial_magmoms:R:1 pbc="T T T"
Si      -1.35750000      -1.35750000       1.35750000       0.00000000
Si       1.35750000       1.35750000       1.35750000       0.00000000
Si      -1.35750000       1.35750000      -1.35750000       0.00000000
Si       1.35750000      -1.35750000      -1.35750000       0.00000000
Si       2.73694806      -0.09053982       2.56167852       0.00000000
Si      -2.60795298       2.70458526       0.06198888       0.00000000
Si      -2.47018302      -0.18530418       2.87455512       0.00000000
Si       2.76069888      -0.03852042      -2.61380652       0.00000000
Si      -2.60559636       0.12499860      -2.80543122       0.00000000
Si       0.00000000      -2.71500000       2.71500000       0.00000000
