10
Lattice="10.86 0.0 0.0 0.0 10.86 0.0 0.0 0.0 10.86" Properties=species:S:1:pos:R:3:initial_magmoms:R:1 pbc="T T T"
Si      -1.48872138      -1.17391170       1.09847814       0.00000000
Si       1.22627862       1.54108830       1.09847814       0.00000000
Si       1.22627862      -1.17391170      -1.61652186       0.00000000
Si      -0.13122138      -2.53141170       2.45597814       0.00000000
Si       2.58377862       0.18358830       2.45597814       0.00000000
Si       2.58377862      -2.53141170      -0.25902186       0.00000000
Si      -0.13007022       2.78607870       2.44751820       0.00000000
Si      -2.91132708       0.49574814       2.37219324       0.00000000
Si      -2.84622138      -2.53141170      -0.25902186       0.00000000
Si       2.58377862       2.89858830      -0.25902186       0.00000000
