10
Lattice="10.86 0.0 0.0 0.0 10.86 0.0 0.0 0.0 10.86" Properties=species:S:1:pos:R:3:initial_magmoms:R:1 pbc="T T T"
Si       1.14423132      -1.45681470      -1.29377352       0.00000000
Si      -1.57076868       1.25818530      -1.29377352       0.00000000
Si      -1.57076868      -1.45681470       1.42122648       0.00000000
Si       1.49594328       1.20294048       1.85636496       0.00000000
Si       2.52802338       2.56795560       0.08070066       0.00000000
Si      -0.42793830       2.45730306       2.62643670       0.00000000
Si       2.50173132      -0.09931470      -2.65127352       0.00000000
Si       2.40768372      -2.77625040       0.16282398       0.00000000
Si      -0.21326868       2.61568530      -2.65127352       0.00000000
Si      -0.21326868      -2.81431470      -2.65127352       0.00000000
