10
Lattice="10.86 0.0 0.0 0.0 10.86 0.0 0.0 0.0 10.86" Properties=species:S:1:pos:R:3:initial_magmoms:R:1 pbc="T T T"
Si       1.15432026       1.35200484       1.47357168       0.00000000
Si       1.47343050      -0.68438634      -1.64136954       0.00000000
Si      -1.56067974       1.35200484      -1.24142832       0.00000000
Si      -1.56067974      -1.36299516       1.47357168       0.00000000
Si       2.44671456      -2.40833532       0.03228678       0.00000000
Si       0.16208550      -2.61975780      -2.21667804       0.00000000
Si       2.40656514       2.69907924       0.06509484       0.00000000
Si      -0.41784936       2.55112260      -2.75121810       0.00000000
Si       2.51182026      -0.00549516       2.83107168       0.00000000
Si      -2.91817974      -0.00549516      -2.59892832       0.00000000
