10
Lattice="10.86 0.0 0.0 0.0 10.86 0.0 0.0 0.0 10.86" Properties=species:S:1:pos:R:3:initial_magmoms:R:1 pbc="T T T"
Si      -1.14868392       1.35868374      -1.24879140       0.00000000
Si       1.56631608      -1.35631626      -1.24879140       0.00000000
Si       1.56631608       1.35868374       1.46620860       0.00000000
Si      -2.47989186      -0.04654596      -2.58931722       0.00000000
Si      -2.50618392       2.71618374       0.10870860       0.00000000
Si       0.20881608       2.71618374      -2.60629140       0.00000000
Si       0.24608760      -2.63756820      -2.71923540       0.00000000
Si      -2.61143904      -0.00924186       2.77273176       0.00000000
Si      -3.51197196      -1.41156108      -0.81365292       0.00000000
Si       2.92381608       0.00118374      -2.60629140       0.00000000
