10
Lattice="10.86 0.0 0.0 0.0 10.86 0.0 0.0 0.0 10.86" Properties=species:S:1:pos:R:3:initial_magmoms:R:1 pbc="T T T"
Si      -1.20243006      -1.39422852      -1.27114128       0.00000000
Si      -1.20243006       1.32077148       1.44385872       0.00000000
Si       1.51256994       1.32077148      -1.27114128       0.00000000
Si      -2.55993006      -0.03672852      -2.62864128       0.00000000
Si      -2.55993006       2.67827148       0.08635872       0.00000000
Si       0.15506994       2.67827148      -2.62864128       0.00000000
Si      -2.55993006      -2.75172852       0.08635872       0.00000000
Si      -2.55993006      -0.03672852       2.80135872       0.00000000
Si       0.15506994      -2.75172852      -2.62864128       0.00000000
Si       0.15506994       2.67827148       2.80135872       0.00000000
