10
Lattice="16.28999089631971 0.0 0.0 0.0 16.28999089631971 0.0 0.0 0.0 34.385447050020396" Properties=species:S:1:pos:R:3:initial_magmoms:R:1 pbc="T T T"
Si      -1.28403807       1.35778240      -1.37125801       0.00000000
Si      -1.27543858      -1.50586995       1.22718291       0.00000000
Si       1.44681264      -1.37509383      -1.34388718       0.00000000
Si       0.78183855       1.84614682       1.38456518       0.00000000
Si       0.43634394      -2.28642159       2.58111064       0.00000000
Si      -2.61577394      -0.01419050      -2.72387910       0.00000000
Si      -2.66146739       2.72943949       0.07949920       0.00000000
Si       0.09930384       2.69606128      -2.72281315       0.00000000
Si       0.10019979      -2.72866251      -2.72587345       0.00000000
Si      -3.56365646       0.90190838       1.17924957       0.00000000
