10
Lattice="16.28999089631971 0.0 0.0 0.0 16.28999089631971 0.0 0.0 0.0 34.385447050020396" Properties=species:S:1:pos:R:3:initial_magmoms:R:1 pbc="T T T"
Si       1.35449721      -1.35922842      -1.36493108       0.00000000
Si      -1.36203948       1.35719654      -1.36493108       0.00000000
Si      -1.37015190      -1.35880488       1.37345868       0.00000000
Si       1.34846991       1.36508742       1.39336786       0.00000000
Si       2.71070487      -2.71261791      -0.00808058       0.00000000
Si       2.70826137       2.71507067      -0.00185682       0.00000000
Si      -2.71676475      -2.71237356      -0.00852760       0.00000000
Si      -2.71766070       2.71235024      -0.00546729       0.00000000
Si       2.71132389      -0.00004500      -2.72219421       0.00000000
Si      -0.00348606       2.71505438      -2.72167843       0.00000000
