10
Lattice="16.28999089631971 0.0 0.0 0.0 16.28999089631971 0.0 0.0 0.0 34.385447050020396" Properties=species:S:1:pos:R:3:initial_magmoms:R:1 pbc="T T T"
Si      -1.26211662       1.23939207      -1.61419133       0.00000000
Si       1.57071438       1.40224320       1.19200657       0.00000000
Si      -1.95264972      -0.97702533       1.13558002       0.00000000
Si       1.43094618      -1.47437369      -1.57296315       0.00000000
Si       0.93509487      -0.60193179       3.30623135       0.00000000
Si      -2.66388741       2.60237637      -0.36424524       0.00000000
Si      -3.60074160       0.91209339       0.93246507       0.00000000
Si      -2.73448827      -2.82317215      -0.24898516       0.00000000
Si       0.07972326       2.58738957      -2.97176392       0.00000000
Si      -2.63518443      -0.12711087      -2.97179831       0.00000000
