10
Lattice="16.28999089631971 0.0 0.0 0.0 16.28999089631971 0.0 0.0 0.0 34.385447050020396" Properties=species:S:1:pos:R:3:initial_magmoms:R:1 pbc="T T T"
Si      -1.58387670       1.56851523       0.68110732       0.00000000
Si      -1.29326310      -1.94307120       0.31411123       0.00000000
Si       1.57519413       0.35207577       1.75145811       0.00000000
Si       1.35405738       0.24263955      -1.94494513       0.00000000
Si      -0.38299419       2.88904779       2.20685922       0.00000000
Si       2.51408457       2.28079548      -1.39185490       0.00000000
Si       2.67058260      -1.74226437      -1.91551117       0.00000000
Si       3.38616972       1.40792841       0.64403978       0.00000000
Si      -1.20782205      -2.33353598       2.65019104       0.00000000
Si      -0.16623945       0.17891307      -3.79887193       0.00000000
