10
Lattice="16.28999089631971 0.0 0.0 0.0 16.28999089631971 0.0 0.0 0.0 34.385447050020396" Properties=species:S:1:pos:R:3:initial_magmoms:R:1 pbc="T T T"
Si      -1.18514637      -1.41941286       1.35526877       0.00000000
Si      -0.52711182       2.17179909       0.59816957       0.00000000
Si       2.29219848      -0.18044433       0.35031913       0.00000000
Si      -0.73867005       1.02074769      -1.96660797       0.00000000
Si       2.23829487       1.36262592       2.18182661       0.00000000
Si      -1.55652579      -0.83847888      -3.12440101       0.00000000
Si      -3.31135627      -1.55292570       0.23646885       0.00000000
Si       2.67807600      -2.03861205      -1.56814919       0.00000000
Si       1.17687105       1.98646776      -2.95797535       0.00000000
Si       1.46754981       3.34091610       1.00873204       0.00000000
