10
Lattice="16.28999089631971 0.0 0.0 0.0 16.28999089631971 0.0 0.0 0.0 34.385447050020396" Properties=species:S:1:pos:R:3:initial_magmoms:R:1 pbc="T T T"
Si      -1.34342001       1.23872418      -1.44714673       0.00000000
Si      -1.91554110      -0.96572007       0.99136738       0.00000000
Si       0.83202804       1.72770111       1.43820651       0.00000000
Si       1.37611404      -1.46976525      -1.38741918       0.00000000
Si      -1.03286745       3.24480510       1.25757966       0.00000000
Si       2.63461428       2.60146413       0.08128724       0.00000000
Si      -2.77938351       2.47334328      -0.14232144       0.00000000
Si      -1.17687105      -1.98646776       2.95797535       0.00000000
Si       0.00928530       2.59325397      -2.77817375       0.00000000
Si      -2.70383049      -0.11947086      -2.77411626       0.00000000
