10
Lattice="16.28999089631971 0.0 0.0 0.0 16.28999089631971 0.0 0.0 0.0 34.385447050020396" Properties=species:S:1:pos:R:3:initial_magmoms:R:1 pbc="T T T"
Si      -0.83202804      -1.72770111      -1.43820651       0.00000000
Si      -1.86489549       1.51710399      -0.18062685       0.00000000
Si       1.80258624       0.87376302      -1.35691927       0.00000000
Si      -0.54134928      -0.37325277       2.52850088       0.00000000
Si      -2.53601091      -1.54236978       2.11793841       0.00000000
Si      -2.17544805      -0.48897693      -2.88535325       0.00000000
Si       0.53098884       2.22744573      -2.84378122       0.00000000
Si      -0.97766064       3.41997147      -1.41791909       0.00000000
Si       3.30711435       1.95263343       0.17099892       0.00000000
Si      -2.74756914      -2.69342118      -0.44683913       0.00000000
