10
Lattice="16.28999089631971 0.0 0.0 0.0 16.28999089631971 0.0 0.0 0.0 34.385447050020396" Properties=species:S:1:pos:R:3:initial_magmoms:R:1 pbc="T T T"
Si      -1.59850512       0.41559048      -1.65108693       0.00000000
Si      -1.01478555      -0.74371995       2.01038067       0.00000000
Si       0.81145377       2.14826004       0.76174123       0.00000000
Si       1.10493441      -2.03431149      -0.76762115       0.00000000
Si      -2.82155832      -1.52930520      -0.97792266       0.00000000
Si       1.12058910      -1.24882398       3.10070942       0.00000000
Si       1.48629960      -2.99696904       1.36324620       0.00000000
Si       1.86794172       0.44662293      -3.22233081       0.00000000
Si      -0.47052036       0.15068250      -3.78449880       0.00000000
Si      -2.91908655      -2.09282517       1.36211148       0.00000000
