10
Lattice="16.28999089631971 0.0 0.0 0.0 16.28999089631971 0.0 0.0 0.0 34.385447050020396" Properties=species:S:1:pos:R:3:initial_magmoms:R:1 pbc="T T T"
Si       1.24380666      -1.38764736       1.39500461       0.00000000
Si       1.85714145       0.88042563      -1.19229472       0.00000000
Si      -1.48631589       1.33442793       1.35065768       0.00000000
Si      -0.86444514      -1.90858527      -1.33729346       0.00000000
Si       0.59706108       2.11491441      -2.79984488       0.00000000
Si       2.54853792      -2.74266585      -0.04310906       0.00000000
Si       2.59700067      -0.02298519       2.75249468       0.00000000
Si       2.69511534       2.66344758       0.09206021       0.00000000
Si      -0.12264741       2.69638596       2.74623653       0.00000000
Si      -2.68721469      -2.76035679      -0.04896834       0.00000000
