10
Lattice="16.28999089631971 0.0 0.0 0.0 16.28999089631971 0.0 0.0 0.0 34.385447050020396" Properties=species:S:1:pos:R:3:initial_magmoms:R:1 pbc="T T T"
Si       1.35801585       1.35576783       1.35774452       0.00000000
Si       1.35755973      -1.35755973      -1.35733190       0.00000000
Si      -1.35738054      -1.35827649       1.35743505       0.00000000
Si      -1.35725022       1.35842310      -1.35826030       0.00000000
Si      -2.71324611       0.00262269       2.71414801       0.00000000
Si      -0.00016290      -2.71495656       2.71301329       0.00000000
Si       2.71419093      -2.71448415       0.00000000       0.00000000
Si      -0.00079821       2.71681685      -2.71194734       0.00000000
Si       2.71422351       0.00237834       2.71459502       0.00000000
Si       2.71484253       2.71495124       0.00048140       0.00000000
