10
Lattice="16.28999089631971 0.0 0.0 0.0 16.28999089631971 0.0 0.0 0.0 34.385447050020396" Properties=species:S:1:pos:R:3:initial_magmoms:R:1 pbc="T T T"
Si       1.35438318       1.33439535       1.37136117       0.00000000
Si      -1.35620766       1.35338949      -1.35685050       0.00000000
Si       1.35682668      -1.35866745      -1.35678173       0.00000000
Si      -1.36065483      -1.35544203       1.37101731       0.00000000
Si      -2.71070487       2.71261791       0.00808058       0.00000000
Si       0.00061902       2.71257290      -2.71411362       0.00000000
Si      -2.71422351      -0.00237834      -2.71459502       0.00000000
Si       2.71503801      -0.00162900      -2.71456063       0.00000000
Si       2.71920825       2.71039536       0.00464204       0.00000000
Si      -0.00003258      -2.71686249      -2.71459502       0.00000000
