10
Lattice="16.28999089631971 0.0 0.0 0.0 16.28999089631971 0.0 0.0 0.0 34.385447050020396" Properties=species:S:1:pos:R:3:initial_magmoms:R:1 pbc="T T T"
Si       1.35711990       1.35795069       1.35660980       0.00000000
Si       1.35746199      -1.35687718      -1.35822592       0.00000000
Si      -1.35770634      -1.35794580       1.35750382       0.00000000
Si      -1.35518139       1.35671265      -1.36242094       0.00000000
Si      -2.71590138      -2.71250073       0.00206313       0.00000000
Si      -0.00026064      -2.71436633       2.71449186       0.00000000
Si       2.71500543      -2.71399858       0.00044701       0.00000000
Si       2.71507059       0.00074934       2.71442309       0.00000000
Si       2.71461447       2.71507059      -0.00144419       0.00000000
Si      -0.00027693       2.71586880       2.71418239       0.00000000
