10
Lattice="16.28999089631971 0.0 0.0 0.0 16.28999089631971 0.0 0.0 0.0 34.385447050020396" Properties=species:S:1:pos:R:3:initial_magmoms:R:1 pbc="T T T"
Si       1.35765747       1.35712967      -1.35836346       0.00000000
Si      -1.35767376      -1.35798600      -1.35829469       0.00000000
Si      -1.36073628       1.35712967       1.36204270       0.00000000
Si       1.36091547      -1.36016354       1.36046097       0.00000000
Si       2.71456560      -0.00060436      -2.71583290       0.00000000
Si      -2.71511946      -0.00156547      -2.71528273       0.00000000
Si      -0.00029322       2.71433102      -2.71617675       0.00000000
Si       2.71451673      -2.71606169      -0.00175366       0.00000000
Si      -2.71450044       2.71612292      -0.00192559       0.00000000
Si      -0.00006516      -2.71506800      -2.71627991       0.00000000
