10
Lattice="16.28999089631971 0.0 0.0 0.0 16.28999089631971 0.0 0.0 0.0 34.385447050020396" Properties=species:S:1:pos:R:3:initial_magmoms:R:1 pbc="T T T"
Si       1.66482171       1.02383464      -1.23412877       0.00000000
Si      -2.07689355       0.32519564      -0.96771018       0.00000000
Si       0.65435301      -2.13250665      -0.77590805       0.00000000
Si      -0.00493587       0.47976494       2.37837393       0.00000000
Si      -2.99732742      -1.75798326      -0.37779312       0.00000000
Si       2.73031803      -2.26557966       0.35492678       0.00000000
Si       0.70612263       3.01080740      -1.86644311       0.00000000
Si       3.32575011       1.55435108       0.30510224       0.00000000
Si       3.47599278      -0.43405031       1.61350362       0.00000000
Si      -2.16337716      -0.05323735       3.24083020       0.00000000
