10
Lattice="16.28999089631971 0.0 0.0 0.0 16.28999089631971 0.0 0.0 0.0 34.385447050020396" Properties=species:S:1:pos:R:3:initial_magmoms:R:1 pbc="T T T"
Si      -0.95869908       1.98697275      -0.63231434       0.00000000
Si      -1.66482171      -1.02383464       1.23412877       0.00000000
Si       1.66092840       0.53051643       1.53923101       0.00000000
Si       0.95548995      -0.61434477      -2.10311827       0.00000000
Si       2.41676811       1.22549670      -1.94645809       0.00000000
Si      -1.01046870      -3.15634130       0.45822072       0.00000000
Si       3.50010198       0.74349189       0.05718303       0.00000000
Si       0.85227651       3.04282539      -1.73973267       0.00000000
Si       1.81117107      -1.45788495       2.84763239       0.00000000
Si       1.06549632      -3.28941431       1.58905555       0.00000000
