10
Lattice="16.28999089631971 0.0 0.0 0.0 16.28999089631971 0.0 0.0 0.0 34.385447050020396" Properties=species:S:1:pos:R:3:initial_magmoms:R:1 pbc="T T T"
Si      -2.03662467       0.85068009      -0.95897627       0.00000000
Si       0.40544181       0.93455730       2.36950248       0.00000000
Si       0.86499900      -2.34843156      -1.19692370       0.00000000
Si       2.53941552       1.09607265      -1.16793675       0.00000000
Si       1.68511905      -0.62638308      -2.59362695       0.00000000
Si      -0.90490950       2.16140607      -2.54105157       0.00000000
Si       1.00167210       3.05062830      -1.37672530       0.00000000
Si       3.67352532       0.51179922       0.91417201       0.00000000
Si       2.46252672      -0.16254162       2.93669075       0.00000000
Si      -1.56410064       0.15980490       3.51422904       0.00000000
