10
Lattice="16.28999089631971 0.0 0.0 0.0 16.28999089631971 0.0 0.0 0.0 34.385447050020396" Properties=species:S:1:pos:R:3:initial_magmoms:R:1 pbc="T T T"
Si       1.15621533      -1.49925015      -1.43218906       0.00000000
Si      -1.43641962      -1.32455619       1.35530315       0.00000000
Si      -1.56151053       1.23075837      -1.42194219       0.00000000
Si       1.48739103       1.31429349       1.59194393       0.00000000
Si       2.61910620       2.62501947       0.00986863       0.00000000
Si       2.50501104      -0.13812291      -2.80881120       0.00000000
Si      -1.82229714       0.53361153       3.27377147       0.00000000
Si      -0.21550041       2.57852781      -2.80905190       0.00000000
Si       2.53335564      -2.90980125       0.05563568       0.00000000
Si      -2.93762457       2.70052362      -0.03452301       0.00000000
