10
Lattice="16.28999089631971 0.0 0.0 0.0 16.28999089631971 0.0 0.0 0.0 34.385447050020396" Properties=species:S:1:pos:R:3:initial_magmoms:R:1 pbc="T T T"
Si       0.86721444       1.75562217       1.30241831       0.00000000
Si      -1.81097559      -1.05585264       1.10741833       0.00000000
Si      -0.87208515       0.87286707      -2.03589469       0.00000000
Si       1.56449160      -1.81732869      -0.20672542       0.00000000
Si      -2.03211234      -1.16528886      -2.58898491       0.00000000
Si      -0.85227651      -3.04282539       1.73973267       0.00000000
Si       0.10321344      -3.65717016      -0.36338561       0.00000000
Si      -0.22537215       1.35682668       3.42190406       0.00000000
Si      -0.27043029       3.65919012       0.47610117       0.00000000
Si      -3.38616972      -1.40792841      -0.64403978       0.00000000
