10
Lattice="16.28999089631971 0.0 0.0 0.0 16.28999089631971 0.0 0.0 0.0 34.385447050020396" Properties=species:S:1:pos:R:3:initial_magmoms:R:1 pbc="T T T"
Si      -2.07195768      -0.99517239      -0.48586664       0.00000000
Si       0.97681356      -1.85409522       1.11415788       0.00000000
Si      -0.49601421       1.63286073       1.66456604       0.00000000
Si       1.09258659       0.39879549      -2.11948576       0.00000000
Si       0.22537215      -1.35682668      -3.42190406       0.00000000
Si      -3.13266474      -1.09895598       1.61835197       0.00000000
Si      -1.58560344      -2.41267932      -2.31448573       0.00000000
Si      -0.04505814       2.30236344      -2.94580290       0.00000000
Si      -1.62069210       3.37657491       0.49986152       0.00000000
Si       3.28232097      -1.58084676       1.07193253       0.00000000
