10
Lattice="16.28999089631971 0.0 0.0 0.0 16.28999089631971 0.0 0.0 0.0 34.385447050020396" Properties=species:S:1:pos:R:3:initial_magmoms:R:1 pbc="T T T"
Si      -1.35619137       1.35216774      -1.35554385       0.00000000
Si       1.35731538       1.35562122       1.35767575       0.00000000
Si      -1.35773892      -1.36029645       1.35719435       0.00000000
Si       1.35386190      -1.36085031      -1.36341812       0.00000000
Si       0.03321531       2.67856470      -2.69978176       0.00000000
Si      -2.70938538      -0.01249443      -2.71303392       0.00000000
Si      -2.71282257       2.71120986       0.00017193       0.00000000
Si      -0.00060273       2.71262709       2.71401047       0.00000000
Si       2.71596654       2.71205694       0.00075648       0.00000000
Si       2.71471221      -0.00330687       2.71411362       0.00000000
