10
Lattice="16.28999089631971 0.0 0.0 0.0 16.28999089631971 0.0 0.0 0.0 34.385447050020396" Properties=species:S:1:pos:R:3:initial_magmoms:R:1 pbc="T T T"
Si      -0.60839892       1.33196814       1.89701179       0.00000000
Si      -1.50452811      -1.07887041      -1.52791819       0.00000000
Si       0.56505123      -2.08117782       1.22941796       0.00000000
Si       1.23738840       1.51762527      -1.55625182       0.00000000
Si       2.83740849      -1.55993040       1.53995311       0.00000000
Si      -3.30711435      -1.95263343      -0.17099892       0.00000000
Si      -0.05950737      -2.44288098      -2.99284221       0.00000000
Si      -1.23430959       0.04784373       3.76782185       0.00000000
Si       2.66119956       0.26925741      -3.00752481       0.00000000
Si       2.24701002       3.35256345      -0.38291655       0.00000000
