10
Lattice="16.28999089631971 0.0 0.0 0.0 16.28999089631971 0.0 0.0 0.0 34.385447050020396" Properties=species:S:1:pos:R:3:initial_magmoms:R:1 pbc="T T T"
Si       1.12467789      -1.74371418       1.16470451       0.00000000
Si       1.45235124       0.56216790      -1.82201709       0.00000000
Si      -2.33846208      -0.29594043      -0.56216799       0.00000000
Si      -0.14548599       2.35400274       0.57901687       0.00000000
Si      -0.16190631       1.86005736      -2.86107711       0.00000000
Si      -1.96740846       0.36131220      -2.89130193       0.00000000
Si      -0.76300731      -2.48093442       2.45470967       0.00000000
Si      -1.86794172      -0.44662293       3.22233081       0.00000000
Si       3.12253236      -0.70739325       1.95797722       0.00000000
Si      -1.09473687       3.32550576      -1.36723491       0.00000000
