10
Lattice="16.28999089631971 0.0 0.0 0.0 16.28999089631971 0.0 0.0 0.0 34.385447050020396" Properties=species:S:1:pos:R:3:initial_magmoms:R:1 pbc="T T T"
Si      -0.05765031       1.74829167      -1.56429802       0.00000000
Si       2.19716262       0.05662404       0.90045221       0.00000000
Si      -0.81145377      -2.14826004      -0.76174123       0.00000000
Si      -1.64037042       0.96541056       1.66656039       0.00000000
Si       0.91100196       0.65236563      -3.40505518       0.00000000
Si      -1.82623932      -2.89197999       1.24863944       0.00000000
Si       1.40020695       3.38300946      -0.44322866       0.00000000
Si      -2.41810389       2.18636235      -1.81431474       0.00000000
Si      -2.40995889      -1.73266956      -2.41282817       0.00000000
Si      -2.82703176      -0.94985361       2.43349383       0.00000000
