10
Lattice="16.28999089631971 0.0 0.0 0.0 16.28999089631971 0.0 0.0 0.0 34.385447050020396" Properties=species:S:1:pos:R:3:initial_magmoms:R:1 pbc="T T T"
Si      -1.29129201       1.36003581      -1.31619656       0.00000000
Si       1.32538698       1.38849444       1.34100568       0.00000000
Si      -1.38940668      -1.32639696       1.34423791       0.00000000
Si       1.29287214      -1.30528512      -1.57086220       0.00000000
Si      -2.12926590      -0.42298614      -2.60055149       0.00000000
Si       0.34736796       2.42235558      -2.64630033       0.00000000
Si       2.05131825       0.62156124      -2.90155709       0.00000000
Si      -0.47728071      -2.36872890      -2.84629965       0.00000000
Si       2.67672393      -2.66414805      -0.03491844       0.00000000
Si      -0.03321531      -2.67856470       2.69978176       0.00000000
