10
Lattice="16.28999089631971 0.0 0.0 0.0 16.28999089631971 0.0 0.0 0.0 34.385447050020396" Properties=species:S:1:pos:R:3:initial_magmoms:R:1 pbc="T T T"
Si      -1.07805591      -2.03191686       0.35657729       0.00000000
Si      -0.65435301       2.13250665       0.77590805       0.00000000
Si       2.07596502      -0.13307301       1.13083483       0.00000000
Si      -0.16817796      -0.08433333      -2.43617590       0.00000000
Si       1.01046870       3.15634130      -0.45822072       0.00000000
Si      -3.20611635      -1.64923218      -0.64362716       0.00000000
Si      -2.73124656       2.45770229      -0.19180213       0.00000000
Si      -0.14522535      -3.49736526      -1.13726491       0.00000000
Si      -3.65168043       0.37452339       0.39811493       0.00000000
Si      -0.12880503      -3.00341988       2.30282906       0.00000000
