10
Lattice="16.28999089631971 0.0 0.0 0.0 16.28999089631971 0.0 0.0 0.0 34.385447050020396" Properties=species:S:1:pos:R:3:initial_magmoms:R:1 pbc="T T T"
Si      -0.96865227       1.09592604       1.84075717       0.00000000
Si      -0.94925088       0.97150302      -1.94625178       0.00000000
Si       2.25100107       0.78050277      -0.04979016       0.00000000
Si       0.14548599      -2.35400274      -0.57901687       0.00000000
Si       1.59783723      -1.79183484      -2.40103395       0.00000000
Si      -0.01642032      -0.49394538      -3.44009397       0.00000000
Si      -0.91100196      -0.65236563       3.40505518       0.00000000
Si      -2.19297609      -2.64994317      -1.14118485       0.00000000
Si       0.12880503       3.00341988      -2.30282906       0.00000000
Si       2.20477005       2.87034687      -1.17199423       0.00000000
