10
Lattice="16.28999089631971 0.0 0.0 0.0 16.28999089631971 0.0 0.0 0.0 34.385447050020396" Properties=species:S:1:pos:R:3:initial_magmoms:R:1 pbc="T T T"
Si      -1.35110889      -1.34537481       1.36582511       0.00000000
Si      -1.35337320       1.35995436      -1.35887924       0.00000000
Si       1.36080144      -1.35784481      -1.35846662       0.00000000
Si       1.36221867       1.36643778       1.36644404       0.00000000
Si      -2.70865233       2.71357191       0.00123788       0.00000000
Si      -2.70840798      -2.71678823       0.00357609       0.00000000
Si      -2.71166598       0.00050499      -2.71524834       0.00000000
Si       0.00236205      -2.71420758      -2.71555781       0.00000000
Si       0.00267156       2.71531494      -2.71562658       0.00000000
Si       2.71893132      -2.71246722       0.00048140       0.00000000
