10
Lattice="16.28999089631971 0.0 0.0 0.0 16.28999089631971 0.0 0.0 0.0 34.385447050020396" Properties=species:S:1:pos:R:3:initial_magmoms:R:1 pbc="T T T"
Si       1.62538362       0.12250080      -1.64850802       0.00000000
Si       1.08333387      -0.48200481       2.00364112       0.00000000
Si      -1.46127816      -1.83984147      -0.15666018       0.00000000
Si      -1.56449160       1.81732869       0.20672542       0.00000000
Si       0.00203625      -0.97759548      -3.00886584       0.00000000
Si      -2.41676811      -1.22549670       1.94645809       0.00000000
Si      -2.28007872      -1.33286409      -2.35282553       0.00000000
Si      -0.75583971      -0.69498027       3.48568910       0.00000000
Si      -3.37546719       0.76147605       1.31414375       0.00000000
Si       2.31238179       1.47538530       2.51818524       0.00000000
