10
Lattice="16.28999089631971 0.0 0.0 0.0 16.28999089631971 0.0 0.0 0.0 34.385447050020396" Properties=species:S:1:pos:R:3:initial_magmoms:R:1 pbc="T T T"
Si      -1.58783517       1.81179009       0.14224102       0.00000000
Si       1.81897398       0.88606197       1.45095462       0.00000000
Si      -0.94809429      -1.85891706       1.36126701       0.00000000
Si       1.65864780       0.87952968      -1.69585681       0.00000000
Si      -1.54411281      -0.82114632      -2.44645715       0.00000000
Si      -2.08801962       1.56812427      -2.14861025       0.00000000
Si       0.39499992       2.18062827       2.77587821       0.00000000
Si      -2.33135964      -0.55967553       2.77035247       0.00000000
Si      -3.45805749       0.93502971       1.31224021       0.00000000
Si       3.37470386       2.05444593       0.12293977       0.00000000
