10
Lattice="16.28999089631971 0.0 0.0 0.0 16.28999089631971 0.0 0.0 0.0 34.385447050020396" Properties=species:S:1:pos:R:3:initial_magmoms:R:1 pbc="T T T"
Si      -0.90365517      -1.94750208      -1.11989612       0.00000000
Si       1.07917992      -1.57866390       1.51374107       0.00000000
Si      -1.63159011       1.10995173       1.48871532       0.00000000
Si       1.57959243       1.41439554      -1.52542666       0.00000000
Si       2.42724258      -0.25319547       2.87905727       0.00000000
Si      -0.28909863       2.46617568       2.87238649       0.00000000
Si       2.50315398      -2.87323020       0.18881747       0.00000000
Si      -3.04761465       2.45951307       0.08465702       0.00000000
Si      -2.77387749      -2.82426246       0.05010306       0.00000000
Si       2.74655916       2.84980518       0.14925012       0.00000000
