10
Lattice="16.28999089631971 0.0 0.0 0.0 16.28999089631971 0.0 0.0 0.0 34.385447050020396" Properties=species:S:1:pos:R:3:initial_magmoms:R:1 pbc="T T T"
Si       1.35604476       1.35536058      -1.35674734       0.00000000
Si      -1.35527913       1.35361755       1.36011712       0.00000000
Si       1.35337320      -1.35995436       1.35887924       0.00000000
Si      -1.35829278      -1.35944937      -1.35636910       0.00000000
Si       2.71410948       2.71215468       0.00123788       0.00000000
Si      -0.00097740       2.71329498      -2.71407924       0.00000000
Si       2.71419093      -0.00123804      -2.71321960       0.00000000
Si      -0.00677664       2.70583416       2.72171281       0.00000000
Si      -2.71593396       2.71314837       0.00099718       0.00000000
Si       0.00226431      -2.70532917       2.72470435       0.00000000
