10
Lattice="16.28999089631971 0.0 0.0 0.0 16.28999089631971 0.0 0.0 0.0 34.385447050020396" Properties=species:S:1:pos:R:3:initial_magmoms:R:1 pbc="T T T"
Si       2.38632766      -0.00993690      -0.18568152       0.00000000
Si      -1.00299159      -1.48786344      -1.59043097       0.00000000
Si      -0.33256035       2.13069942      -1.07433951       0.00000000
Si      -0.90974763      -0.31284945       2.27071304       0.00000000
Si       0.90157005       1.56271599      -3.03541142       0.00000000
Si       0.20800701      -0.81352260      -3.61294971       0.00000000
Si      -2.49657282       1.94566131      -1.97970883       0.00000000
Si      -3.06007650      -0.39076452      -2.15761924       0.00000000
Si       3.20438051       0.46988505       1.98713610       0.00000000
Si       2.97037466       1.50162849      -2.00639196       0.00000000
