10
Lattice="16.28999089631971 0.0 0.0 0.0 16.28999089631971 0.0 0.0 0.0 34.385447050020396" Properties=species:S:1:pos:R:3:initial_magmoms:R:1 pbc="T T T"
Si      -1.35868374       1.35534429      -1.35846662       0.00000000
Si       1.35752715      -1.35913986      -1.35877608       0.00000000
Si       1.36943514       1.35865116       1.34828852       0.00000000
Si      -1.36335897      -1.36546038       1.36169885       0.00000000
Si       2.56473018      -0.13608666       2.72394787       0.00000000
Si      -2.59776630       0.04546539       2.81878298       0.00000000
Si       2.71827601       2.70850572      -0.00361047       0.00000000
Si      -2.71485882       2.71282257       0.00429818       0.00000000
Si      -2.71186146      -2.71767699       0.00010316       0.00000000
Si      -0.00047241       2.71399545      -2.71665815       0.00000000
