10
Lattice="16.28999089631971 0.0 0.0 0.0 16.28999089631971 0.0 0.0 0.0 34.385447050020396" Properties=species:S:1:pos:R:3:initial_magmoms:R:1 pbc="T T T"
Si       0.99755073      -1.18817631      -1.72797284       0.00000000
Si      -0.97168221      -1.46639322       1.51839342       0.00000000
Si      -1.89007983       1.08483255      -0.84949294       0.00000000
Si       1.72242315       1.25204940       1.07227638       0.00000000
Si      -0.51171777       1.95954039      -2.58468673       0.00000000
Si       0.00402363       2.47792077       2.31259453       0.00000000
Si      -2.05017795       2.73961962       0.81823656       0.00000000
Si      -1.30070763       0.62017659       3.41158842       0.00000000
Si       2.56312791      -0.42489207       2.68681156       0.00000000
Si       2.96430826      -2.13495111      -0.80926195       0.00000000
