10
Lattice="16.28999089631971 0.0 0.0 0.0 16.28999089631971 0.0 0.0 0.0 34.385447050020396" Properties=species:S:1:pos:R:3:initial_magmoms:R:1 pbc="T T T"
Si       1.22662071       1.54572552       1.32188048       0.00000000
Si       1.71839952      -1.22587137      -1.24031815       0.00000000
Si      -1.30473126      -1.85774418       1.09899389       0.00000000
Si      -2.05420158       0.26169885      -1.49435798       0.00000000
Si       1.57509639       2.68431507      -0.74090364       0.00000000
Si      -0.00402363      -2.47792077      -2.31259453       0.00000000
Si      -0.97340895       3.30074496       1.03613726       0.00000000
Si      -3.54139713      -0.78239241       1.35117690       0.00000000
Si       2.55910428      -2.90281284       0.37421703       0.00000000
Si      -1.77108138       2.38410666      -2.51117060       0.00000000
