10
Lattice="16.28999089631971 0.0 0.0 0.0 16.28999089631971 0.0 0.0 0.0 34.385447050020396" Properties=species:S:1:pos:R:3:initial_magmoms:R:1 pbc="T T T"
Si      -1.35346230       1.34810167      -1.36004835       0.00000000
Si       1.35934302       1.35598115       1.35826030       0.00000000
Si      -1.35663885      -1.35983619       1.35771014       0.00000000
Si       1.35650204      -1.35644787      -1.36438092       0.00000000
Si      -2.71059849       2.71612447      -0.00051578       0.00000000
Si       2.71467916       2.71355065      -0.00082525       0.00000000
Si       0.00163828       2.71312711       2.71535150       0.00000000
Si      -2.71260216      -2.71656513       0.00185682       0.00000000
Si      -2.71423116      -0.00138998       2.71517957       0.00000000
Si       2.71643848      -0.00156739       2.71535150       0.00000000
