10
Lattice="16.28999089631971 0.0 0.0 0.0 16.28999089631971 0.0 0.0 0.0 34.385447050020396" Properties=species:S:1:pos:R:3:initial_magmoms:R:1 pbc="T T T"
Si       1.35777150      -1.35433431       1.35829469       0.00000000
Si      -1.35777150      -1.35612621      -1.35698804       0.00000000
Si      -1.35360126       1.35589815       1.36221463       0.00000000
Si       1.35716877       1.35847880      -1.35691927       0.00000000
Si       0.00014661      -2.71313208      -2.71332276       0.00000000
Si      -2.71458189       0.00099369      -2.71452625       0.00000000
Si      -2.71598283      -2.71316466       0.00079087       0.00000000
Si       2.71476108       0.00003258      -2.71438871       0.00000000
Si       0.00004887       2.71545733      -2.71407924       0.00000000
Si       2.71440270      -2.71554300       0.00079087       0.00000000
