10
Lattice="16.28999089631971 0.0 0.0 0.0 16.28999089631971 0.0 0.0 0.0 34.385447050020396" Properties=species:S:1:pos:R:3:initial_magmoms:R:1 pbc="T T T"
Si       0.56365029       1.69286562      -1.60195010       0.00000000
Si       1.14146052       0.16495254       2.11848858       0.00000000
Si      -1.94735547      -1.47118248       0.46912092       0.00000000
Si       0.60114987      -2.08761237      -1.30791998       0.00000000
Si       0.25267419      -3.22620192       0.75486414       0.00000000
Si       0.38441142       0.34308369      -3.65472805       0.00000000
Si       2.85862526      -1.58030919      -1.89890299       0.00000000
Si      -0.50819913      -1.87748766      -3.37121988       0.00000000
Si      -2.39029686      -1.34459289       2.83453153       0.00000000
Si       2.47980619       2.15745153       2.21806889       0.00000000
