10
Lattice="16.28999089631971 0.0 0.0 0.0 16.28999089631971 0.0 0.0 0.0 34.385447050020396" Properties=species:S:1:pos:R:3:initial_magmoms:R:1 pbc="T T T"
Si       1.51459533      -1.43684316      -1.08575548       0.00000000
Si      -0.60615090       1.95382260      -1.23330352       0.00000000
Si      -1.82186383      -1.44228402       0.56660371       0.00000000
Si       1.49698584       0.68980005       1.81544946       0.00000000
Si       1.62452025       2.55818160      -1.64066814       0.00000000
Si       2.82812319       2.06537652       0.38556423       0.00000000
Si      -0.23568372       1.87530480       3.02124461       0.00000000
Si      -0.20704590      -2.46914046      -2.59967879       0.00000000
Si       2.26219230      -2.71679733       0.72769962       0.00000000
Si      -1.28014639      -3.36178359      -0.64795973       0.00000000
