10
Lattice="16.28999089631971 0.0 0.0 0.0 16.28999089631971 0.0 0.0 0.0 34.385447050020396" Properties=species:S:1:pos:R:3:initial_magmoms:R:1 pbc="T T T"
Si      -1.35585417      -1.34791605       1.39181364       0.00000000
Si       1.35343836       1.37855754       1.38383621       0.00000000
Si      -1.74812551       0.77284647      -1.45666807       0.00000000
Si       1.50050448      -1.36407573      -1.41033709       0.00000000
Si      -2.71363608      -2.68490151       0.01113058       0.00000000
Si       2.71625976      -2.70860346       0.03954672       0.00000000
Si      -2.72191958       2.70396081      -0.01712396       0.00000000
Si       2.70140328       2.73070899      -0.01071107       0.00000000
Si      -0.00547344      -2.69680950       2.74783889       0.00000000
Si       2.70990666       0.01454697       2.74491612       0.00000000
