10
Lattice="16.28999089631971 0.0 0.0 0.0 16.28999089631971 0.0 0.0 0.0 34.385447050020396" Properties=species:S:1:pos:R:3:initial_magmoms:R:1 pbc="T T T"
Si       1.35720346      -1.35723393      -1.35530315       0.00000000
Si      -1.35780589       1.35777150      -1.35647226       0.00000000
Si       1.35774592       1.35871632       1.35719435       0.00000000
Si      -1.35751267      -1.35821133       1.35826030       0.00000000
Si       0.00323618       2.70943425       2.71342591       0.00000000
Si       0.00182267      -2.71373481      -2.71129402       0.00000000
Si       2.71338180       0.00029322      -2.71256628       0.00000000
Si      -2.71275922       0.00089595      -2.71521396       0.00000000
Si       0.00271023      -2.71682991       2.71304767       0.00000000
Si       2.71494564      -2.71503801       0.00079087       0.00000000
