10
Lattice="16.28999089631971 0.0 0.0 0.0 16.28999089631971 0.0 0.0 0.0 34.385447050020396" Properties=species:S:1:pos:R:3:initial_magmoms:R:1 pbc="T T T"
Si      -2.21693542      -0.72176103      -0.51151820       0.00000000
Si       0.28318536       2.38826061      -0.21872595       0.00000000
Si       1.71028710      -1.04409126      -1.42135763       0.00000000
Si       0.38708298      -0.73080198       2.53218012       0.00000000
Si       2.61379566       2.24714034       0.41176596       0.00000000
Si       1.57467285      -3.16151433      -0.03672368       0.00000000
Si       3.61458810       0.30501396      -0.77308844       0.00000000
Si      -3.05764019       0.95518044      -2.12605338       0.00000000
Si      -2.32302079      -2.74444146      -1.69702592       0.00000000
Si      -1.29383977       3.60209367       1.48889069       0.00000000
