10
Lattice="16.28999089631971 0.0 0.0 0.0 16.28999089631971 0.0 0.0 0.0 34.385447050020396" Properties=species:S:1:pos:R:3:initial_magmoms:R:1 pbc="T T T"
Si      -1.35650204       1.35644787       1.36438092       0.00000000
Si       1.36062062      -1.36050822       1.36303988       0.00000000
Si       1.39010552       1.34388051      -1.37497164       0.00000000
Si      -1.35791064      -1.38934152      -1.39831249       0.00000000
Si      -2.70996435       2.70454955       0.00433257       0.00000000
Si      -2.71926594      -2.70914103       0.00839005       0.00000000
Si       2.72718872       2.70184541       0.01017810       0.00000000
Si       2.71744730      -2.71474479       0.00264768       0.00000000
Si       0.00284098       2.71242902       2.72264122       0.00000000
Si      -2.71314090      -0.00338832       2.72209105       0.00000000
