10
Lattice="16.28999089631971 0.0 0.0 0.0 16.28999089631971 0.0 0.0 0.0 34.385447050020396" Properties=species:S:1:pos:R:3:initial_magmoms:R:1 pbc="T T T"
Si      -1.35594616      -1.35558864      -1.35750382       0.00000000
Si       1.36119240      -1.35327546       1.35626595       0.00000000
Si      -1.35478133       1.36119656       1.35826030       0.00000000
Si       1.35931905       1.35927878      -1.35760698       0.00000000
Si       0.00783549      -2.71873584       2.69822754       0.00000000
Si       0.00075586      -2.71295289      -2.71524834       0.00000000
Si      -2.71411667      -2.71456560      -0.00006877       0.00000000
Si      -2.71291121       2.71581897      -0.00068771       0.00000000
Si      -2.71375829       0.00100998      -2.71524834       0.00000000
Si       2.71705797      -2.71417464      -0.00044701       0.00000000
