10
Lattice="16.28999089631971 0.0 0.0 0.0 16.28999089631971 0.0 0.0 0.0 34.385447050020396" Properties=species:S:1:pos:R:3:initial_magmoms:R:1 pbc="T T T"
Si      -1.38931613       1.26061794       1.33408732       0.00000000
Si       1.27777131      -1.47202956       1.29275599       0.00000000
Si       1.35335691       1.36546038      -1.34196159       0.00000000
Si      -1.36006300      -1.35783666      -1.34292439       0.00000000
Si      -2.34296531      -0.25485705       2.80970522       0.00000000
Si      -0.02228146       2.58825294       2.61109477       0.00000000
Si      -0.00555326      -2.70855459      -2.69915595       0.00000000
Si       2.70922248       0.00456120      -2.69867455       0.00000000
Si      -2.70890387      -2.70769122       0.00897461       0.00000000
Si      -0.00783549       2.71873584      -2.69822754       0.00000000
