10
Lattice="16.28999089631971 0.0 0.0 0.0 16.28999089631971 0.0 0.0 0.0 34.385447050020396" Properties=species:S:1:pos:R:3:initial_magmoms:R:1 pbc="T T T"
Si       1.29543000      -0.49104576      -1.94645809       0.00000000
Si       2.20745497       0.25433577       0.92328415       0.00000000
Si      -1.22418733      -2.06298189       0.18881060       0.00000000
Si      -1.12848358       2.11792547       0.25565594       0.00000000
Si      -0.99278788       1.91673257      -1.99439143       0.00000000
Si      -2.60689882       1.09971951       1.67704796       0.00000000
Si       3.00721252      -1.27159740      -0.59253035       0.00000000
Si       2.55523018       2.49256126       0.43614525       0.00000000
Si       1.80541777      -0.18078642       3.12130631       0.00000000
Si      -0.07160467      -1.81868076      -3.22346554       0.00000000
