10
Lattice="10.86 0.0 0.0 0.0 10.86 0.0 0.0 0.0 10.86" Properties=species:S:1:pos:R:3:initial_magmoms:R:1 pbc="T T T"
Si       1.42911084      -1.17974352      -1.20616590       0.00000000
Si      -1.28588916      -1.17974352       1.50883410       0.00000000
Si       1.42911084       1.53525648       1.50883410       0.00000000
Si      -2.06311764      -0.25327692      -1.76133996       0.00000000
Si       0.07161084      -2.53724352      -2.56366590       0.00000000
Si      -2.64338916      -2.53724352       0.15133410       0.00000000
Si       2.48269374       0.27968844      -2.72019108       0.00000000
Si       2.78661084      -2.53724352       0.15133410       0.00000000
Si       0.07161084      -2.53724352       2.86633410       0.00000000
Si      -2.64338916       0.17775648       2.86633410       0.00000000
