10
Lattice="16.28999089631971 0.0 0.0 0.0 16.28999089631971 0.0 0.0 0.0 34.63643526849801" Properties=species:S:1:pos:R:3:initial_magmoms:R:1 pbc="T T T"
Si      -1.35576783       1.35962888      -1.36304840       0.00000000
Si       1.35870003      -1.35753076      -1.36374113       0.00000000
Si      -1.36106208      -1.35246457       1.38223699       0.00000000
Si       1.35215145       1.37928928       1.37853089       0.00000000
Si       2.71248048      -2.71057816      -0.00391392       0.00000000
Si       2.71518462       2.71592124      -0.00363683       0.00000000
Si      -2.71686249      -2.71518823      -0.00304801       0.00000000
Si       0.00073305      -2.71385245      -2.72055496       0.00000000
Si      -2.71440270       0.00127030      -2.72003542       0.00000000
Si       0.00102627       2.71668687      -2.72027787       0.00000000
