10
Lattice="16.28999089631971 0.0 0.0 0.0 16.28999089631971 0.0 0.0 0.0 34.63643526849801" Properties=species:S:1:pos:R:3:initial_magmoms:R:1 pbc="T T T"
Si       1.26509769      -0.55017846       1.88469873       0.00000000
Si       0.86718186       2.14364997      -0.35218347       0.00000000
Si       1.03180860      -1.71483690      -1.45590873       0.00000000
Si      -2.66896989       1.06168446       0.49557839       0.00000000
Si      -0.47539107      -1.57236293       3.00671931       0.00000000
Si      -2.11809096      -2.55153691       1.43256376       0.00000000
Si       0.47397384       2.59356348      -2.61751151       0.00000000
Si       3.32850312      -1.69951452      -0.82323925       0.00000000
Si       2.32559298       1.21582044       3.03174415       0.00000000
Si      -0.22341735      -3.80179997      -1.36471095       0.00000000
