10
Lattice="16.28999089631971 0.0 0.0 0.0 16.28999089631971 0.0 0.0 0.0 34.63643526849801" Properties=species:S:1:pos:R:3:initial_magmoms:R:1 pbc="T T T"
Si      -1.30249953      -1.91308131       0.77208121       0.00000000
Si       0.03937293       0.63904041       2.43992144       0.00000000
Si      -0.79159626       0.95746104      -2.57837232       0.00000000
Si       2.66896989      -1.06168446      -0.49557839       0.00000000
Si       0.55087893      -3.61322137       0.93698537       0.00000000
Si       3.53615175       1.08196551      -0.84776186       0.00000000
Si      -1.39204566      -3.51438831      -0.92565925       0.00000000
Si       1.83143583       2.34100332       2.56343850       0.00000000
Si       2.51315604       3.00439728       0.39859632       0.00000000
Si       0.90844443      -1.18820889       3.84163452       0.00000000
