10
Lattice="16.28999089631971 0.0 0.0 0.0 16.28999089631971 0.0 0.0 0.0 34.63643526849801" Properties=species:S:1:pos:R:3:initial_magmoms:R:1 pbc="T T T"
Si      -1.04407497      -1.56461119       1.45265780       0.00000000
Si       1.64269989       0.97917398       1.57415555       0.00000000
Si      -1.85337846       1.70014006      -0.16490416       0.00000000
Si      -1.94292459       0.09883306      -1.86264462       0.00000000
Si       1.89467361      -1.25026306      -2.79727471       0.00000000
Si       2.11809096       2.55153691      -1.43256376       0.00000000
Si      -2.43173862      -2.85761365       0.09483461       0.00000000
Si      -2.36978775      -0.31114371       2.91531717       0.00000000
Si      -0.55087893       3.61322137      -0.93698537       0.00000000
Si       0.35756550       2.42501248       2.90464915       0.00000000
