10
Lattice="16.28999089631971 0.0 0.0 0.0 16.28999089631971 0.0 0.0 0.0 34.63643526849801" Properties=species:S:1:pos:R:3:initial_magmoms:R:1 pbc="T T T"
Si       1.35612621       1.35721764      -1.35823393       0.00000000
Si       1.35707103      -1.35746199       1.35729875       0.00000000
Si      -1.35780408       1.35742941       1.35764511       0.00000000
Si      -1.35705474      -1.35956340      -1.36107412       0.00000000
Si       0.00164529      -2.71272483       2.71490922       0.00000000
Si      -2.71417464      -0.00086337       2.71463213       0.00000000
Si      -0.00143352       2.71427238       2.71487459       0.00000000
Si       2.71554300      -0.00120546       2.71432040       0.00000000
Si       2.71181259       0.00475668      -2.71858069       0.00000000
Si       2.71498914       2.71549413      -0.00010391       0.00000000
