10
Lattice="16.28999089631971 0.0 0.0 0.0 16.28999089631971 0.0 0.0 0.0 34.63643526849801" Properties=species:S:1:pos:R:3:initial_magmoms:R:1 pbc="T T T"
Si      -1.35597960       1.35671265      -1.35941157       0.00000000
Si       1.35984033      -1.35514881      -1.35913448       0.00000000
Si      -1.36316349      -1.34125344       1.37846162       0.00000000
Si       1.35493704       1.35562122       1.37860017       0.00000000
Si      -2.71658556      -2.71067229       0.00356755       0.00000000
Si       2.71516833       2.71503801       0.00228601       0.00000000
Si      -2.71407690      -0.00008145      -2.71626004       0.00000000
Si       2.71505430      -2.71544526       0.00031173       0.00000000
Si       0.00089595      -2.71467963      -2.71632932       0.00000000
Si       0.00039096       2.71500543      -2.71639859       0.00000000
