10
Lattice="16.28999089631971 0.0 0.0 0.0 16.28999089631971 0.0 0.0 0.0 34.63643526849801" Properties=species:S:1:pos:R:3:initial_magmoms:R:1 pbc="T T T"
Si      -2.16314163       0.89987589      -0.44258462       0.00000000
Si       0.67839542      -0.80659283      -2.14126026       0.00000000
Si       0.33039215      -1.76548739       1.57692851       0.00000000
Si       1.78041392       1.39663944       0.78655925       0.00000000
Si       1.02709916       1.93637601       2.93924954       0.00000000
Si       2.79236501      -1.80601366      -1.88851805       0.00000000
Si       2.69082944      -2.26280222       1.50789805       0.00000000
Si      -1.31036874       2.34093816       2.79893726       0.00000000
Si      -0.43877115       3.69204705      -1.13029142       0.00000000
Si      -2.52272709       2.91170718       0.76678183       0.00000000
