10
Lattice="16.28999089631971 0.0 0.0 0.0 16.28999089631971 0.0 0.0 0.0 34.63643526849801" Properties=species:S:1:pos:R:3:initial_magmoms:R:1 pbc="T T T"
Si       2.08326294       0.85954185      -0.82763808       0.00000000
Si      -0.70004646       1.81387521       1.45074790       0.00000000
Si       0.94819203      -2.12001318       0.95146341       0.00000000
Si      -1.06662033      -0.50301891      -2.27776253       0.00000000
Si       0.80290152       0.87656490      -2.81414267       0.00000000
Si      -2.05144857       0.45812367       2.96163997       0.00000000
Si       3.04013754      -1.26358272       1.54696797       0.00000000
Si      -2.07215316       3.33920565       0.16400361       0.00000000
Si       3.81959775      -0.82857456      -0.73287274       0.00000000
Si      -0.63138411      -2.74597272      -2.90714155       0.00000000
