10
Lattice="16.28999089631971 0.0 0.0 0.0 16.28999089631971 0.0 0.0 0.0 34.63643526849801" Properties=species:S:1:pos:R:3:initial_magmoms:R:1 pbc="T T T"
Si      -1.05395811      -2.02951964      -0.46243131       0.00000000
Si      -0.96279601       0.24857725       2.15480312       0.00000000
Si      -0.33039215       1.76548739      -1.57692851       0.00000000
Si       2.36043729      -0.49731482      -0.06903045       0.00000000
Si       1.45002177       3.16212683      -0.79036926       0.00000000
Si      -0.91136848      -3.04669982       1.69974937       0.00000000
Si       0.45222669      -3.00856493      -1.96423334       0.00000000
Si       3.38605569       1.67919926      -0.28789821       0.00000000
Si      -2.42781992       2.05259864       2.11524828       0.00000000
Si       2.59371009      -1.94710853      -2.05110157       0.00000000
