10
Lattice="16.28999089631971 0.0 0.0 0.0 16.28999089631971 0.0 0.0 0.0 34.63643526849801" Properties=species:S:1:pos:R:3:initial_magmoms:R:1 pbc="T T T"
Si      -0.87503364       2.16409459       0.13182635       0.00000000
Si       1.19421990      -0.16066827      -2.00389208       0.00000000
Si       1.58718357      -0.29507706       1.70934367       0.00000000
Si      -0.68452209      -1.17118584      -3.06016540       0.00000000
Si      -1.97218143       1.87815622       2.26934587       0.00000000
Si       0.11562642      -1.53111339       3.20840943       0.00000000
Si      -2.14035939      -2.41473186      -1.53300948       0.00000000
Si       1.81933236       1.90195102       2.81095611       0.00000000
Si       2.90968722      -1.89912078      -1.70723085       0.00000000
Si       3.58782363      -1.49131692       0.62740474       0.00000000
