10
Lattice="16.28999089631971 0.0 0.0 0.0 16.28999089631971 0.0 0.0 0.0 34.63643526849801" Properties=species:S:1:pos:R:3:initial_magmoms:R:1 pbc="T T T"
Si       1.35746199       1.35561562       1.35736802       0.00000000
Si       1.35684297      -1.35693232      -1.35698702       0.00000000
Si      -1.35707103       1.35805586      -1.35660602       0.00000000
Si      -1.35747828      -1.35861019       1.35726411       0.00000000
Si      -2.71340901      -0.00002510      -2.71501313       0.00000000
Si       2.71437012      -2.71411738       0.00013855       0.00000000
Si      -0.00369783      -2.71165759       2.71709132       0.00000000
Si       2.71568961      -0.00083869       2.71310813       0.00000000
Si      -0.00138465      -2.71489930      -2.71393940       0.00000000
Si      -0.00232947       2.71752967      -2.71168803       0.00000000
