10
Lattice="16.28999089631971 0.0 0.0 0.0 16.28999089631971 0.0 0.0 0.0 34.63643526849801" Properties=species:S:1:pos:R:3:initial_magmoms:R:1 pbc="T T T"
Si       1.35822762      -1.35645431       1.35574011       0.00000000
Si      -1.35746199      -1.35561562      -1.35736802       0.00000000
Si       1.35752715       1.35945426      -1.35733338       0.00000000
Si      -1.35845568       1.35922620       1.36000039       0.00000000
Si      -0.00179190      -2.70321377       2.69845691       0.00000000
Si       2.71419093      -2.71038137      -0.00051955       0.00000000
Si      -0.00061902      -2.71254794      -2.71435504       0.00000000
Si      -2.71453302       0.00244024      -2.71397404       0.00000000
Si       2.71445157       0.00213562      -2.71428577       0.00000000
Si       2.71368594       0.00727674       2.71522095       0.00000000
