10
Lattice="16.28999089631971 0.0 0.0 0.0 16.28999089631971 0.0 0.0 0.0 34.63643526849801" Properties=species:S:1:pos:R:3:initial_magmoms:R:1 pbc="T T T"
Si       1.03949748       0.27751644       2.08359056       0.00000000
Si       0.94209957      -2.04224635      -0.67880524       0.00000000
Si      -2.19279690      -0.73338394       0.56360439       0.00000000
Si       0.00050499       2.17184796      -1.11397765       0.00000000
Si      -3.21900174       1.30952052       0.16660135       0.00000000
Si      -2.23039422       2.01308562      -1.82793889       0.00000000
Si       3.15315756      -0.64034361       1.60048130       0.00000000
Si       3.17728305      -1.57315788      -0.64551960       0.00000000
Si      -0.31343589      -1.17422718       3.56215154       0.00000000
Si       0.35888499       3.68320158       0.69356037       0.00000000
