10
Lattice="16.28999089631971 0.0 0.0 0.0 16.28999089631971 0.0 0.0 0.0 34.63643526849801" Properties=species:S:1:pos:R:3:initial_magmoms:R:1 pbc="T T T"
Si       1.67824467       0.86232744      -1.44918926       0.00000000
Si      -2.18616687       0.33713784      -0.88600051       0.00000000
Si       0.37308987       1.38666996       1.92263496       0.00000000
Si       0.28572660      -2.43206442       0.20556736       0.00000000
Si       0.97340895      -0.39902355       3.35270490       0.00000000
Si       0.59670270       0.82903068      -3.54767350       0.00000000
Si       1.94211009       3.15625266      -0.95219077       0.00000000
Si      -2.55419055      -1.45891611      -2.45849555       0.00000000
Si       2.05713378       3.04460100       1.41129698       0.00000000
Si       2.36797956      -2.96842896       1.07279491       0.00000000
