10
Lattice="16.28999089631971 0.0 0.0 0.0 16.28999089631971 0.0 0.0 0.0 34.63643526849801" Properties=species:S:1:pos:R:3:initial_magmoms:R:1 pbc="T T T"
Si       1.35861858      -1.35591444      -1.36187076       0.00000000
Si      -1.35669636       1.36120869      -1.36155903       0.00000000
Si      -1.36598166      -1.33947783       1.38996092       0.00000000
Si       1.35949824       1.36102950       1.37572534       0.00000000
Si       2.71585251      -2.71120986      -0.00263237       0.00000000
Si      -2.71516833      -2.71288773      -0.00083127       0.00000000
Si       2.71433754       2.71867068      -0.00079664       0.00000000
Si       0.00043983      -2.71313208      -2.72003542       0.00000000
Si      -2.71482624       0.00215028      -2.71958514       0.00000000
Si       2.71562445       0.00185706      -2.72013933       0.00000000
