10
Lattice="16.28999089631971 0.0 0.0 0.0 16.28999089631971 0.0 0.0 0.0 34.63643526849801" Properties=species:S:1:pos:R:3:initial_magmoms:R:1 pbc="T T T"
Si       0.08583201      -1.34990343       1.92114559       0.00000000
Si      -0.67909752       1.53560943       1.68904671       0.00000000
Si       2.35291131       0.43673490      -0.04526985       0.00000000
Si      -0.93432924      -0.84375684      -2.07063653       0.00000000
Si       0.87737940       0.53222688       3.43368493       0.00000000
Si      -1.82552256       1.09105533      -3.20719715       0.00000000
Si       3.65700726      -1.49504733       0.12825879       0.00000000
Si       0.89700885      -1.58480523      -3.51861352       0.00000000
Si       1.09892340      -3.45504384       1.61357388       0.00000000
Si       3.04346070       2.41518798       0.98876687       0.00000000
