10
Lattice="16.28999089631971 0.0 0.0 0.0 16.28999089631971 0.0 0.0 0.0 34.63643526849801" Properties=species:S:1:pos:R:3:initial_magmoms:R:1 pbc="T T T"
Si       1.17589365       2.06006598      -0.18298439       0.00000000
Si      -1.96123455       0.13809033       1.35369656       0.00000000
Si       1.16714592      -2.04159312       0.69996811       0.00000000
Si      -0.98626176      -0.60129648      -2.23470942       0.00000000
Si      -0.84491343      -3.19805280       0.41252017       0.00000000
Si      -1.68039495      -2.72381832      -1.68201551       0.00000000
Si       3.00723174       1.31901759      -1.63096138       0.00000000
Si      -2.54213595      -2.18258307       1.69867564       0.00000000
Si      -3.63819231       1.67451426       0.40649343       0.00000000
Si      -1.65480336       1.05057468       3.53437310       0.00000000
