10
Lattice="16.28999089631971 0.0 0.0 0.0 16.28999089631971 0.0 0.0 0.0 34.63643526849801" Properties=species:S:1:pos:R:3:initial_magmoms:R:1 pbc="T T T"
Si      -1.28036142       0.01702305      -1.98650458       0.00000000
Si      -2.08326294      -0.85954185       0.82763808       0.00000000
Si       1.01343348       2.17912959      -0.03366663       0.00000000
Si       1.73633481      -1.68811641       0.09476534       0.00000000
Si       0.95687460      -2.12312457       2.37460606       0.00000000
Si       0.40861836      -0.91463463      -3.43829158       0.00000000
Si       2.97219195       1.41592680      -1.44596807       0.00000000
Si       1.10900691      -2.72932434      -2.10180934       0.00000000
Si      -1.13507091      -2.97955503       1.77910149       0.00000000
Si       3.70369440      -0.31701969       0.05164295       0.00000000
