10
Lattice="16.28999089631971 0.0 0.0 0.0 16.28999089631971 0.0 0.0 0.0 34.63643526849801" Properties=species:S:1:pos:R:3:initial_magmoms:R:1 pbc="T T T"
Si      -1.33361343       1.29878541       1.59798401       0.00000000
Si      -0.76776399      -1.93280850      -1.31824411       0.00000000
Si       0.89477712       1.95830465      -1.20179635       0.00000000
Si       1.38777768      -1.37415924       1.58474595       0.00000000
Si      -2.69550630      -2.67613749       0.07155545       0.00000000
Si      -2.75628429       2.61805128       0.27246767       0.00000000
Si       2.68569972       2.73500533       0.18143268       0.00000000
Si      -1.01579553       3.64023575      -0.84955291       0.00000000
Si       2.78040978      -2.73911463       0.17854746       0.00000000
Si       1.04208759      -3.65922270      -1.08850431       0.00000000
