10
Lattice="16.28999089631971 0.0 0.0 0.0 16.28999089631971 0.0 0.0 0.0 34.63643526849801" Properties=species:S:1:pos:R:3:initial_magmoms:R:1 pbc="T T T"
Si       1.74944826       0.73060650      -1.41205898       0.00000000
Si      -0.95506641      -1.86952185      -1.26152895       0.00000000
Si      -1.71546732       1.73845251      -0.29666123       0.00000000
Si       0.67813641       0.40780386       2.33463559       0.00000000
Si       0.46967328       2.08169910      -2.80378637       0.00000000
Si      -2.25717498      -0.64177713      -2.77926376       0.00000000
Si       2.62938519       2.52807768      -0.17796210       0.00000000
Si       2.90903562       1.48530591       1.94871621       0.00000000
Si      -2.90968722       1.89912078       1.70723085       0.00000000
Si      -3.59420931       0.72793494      -1.35293455       0.00000000
