10
Lattice="16.28999089631971 0.0 0.0 0.0 16.28999089631971 0.0 0.0 0.0 34.63643526849801" Properties=species:S:1:pos:R:3:initial_magmoms:R:1 pbc="T T T"
Si      -0.31442958      -2.26435887       0.33434570       0.00000000
Si      -2.12841882       0.98483217      -0.26933307       0.00000000
Si       1.91290212       0.16606026      -1.37811526       0.00000000
Si       1.06619679       0.44864014       2.06720752       0.00000000
Si       2.46312945       2.26296512      -0.54819117       0.00000000
Si       2.60283249      -1.30075650       1.84314430       0.00000000
Si      -2.42258364      -2.22925392       1.40132168       0.00000000
Si      -1.53020115       3.31370270      -0.50406432       0.00000000
Si       3.40812864      -1.38478032      -0.36593414       0.00000000
Si       2.23230015       2.44933901       1.78336178       0.00000000
