10
Lattice="16.28999089631971 0.0 0.0 0.0 16.28999089631971 0.0 0.0 0.0 34.63643526849801" Properties=species:S:1:pos:R:3:initial_magmoms:R:1 pbc="T T T"
Si       1.22271111       0.62173768      -1.88761750       0.00000000
Si       0.76387068       0.78490663       2.08068110       0.00000000
Si      -2.18733975       0.87033302      -0.39232712       0.00000000
Si       0.64316178      -2.31542802       0.25253439       0.00000000
Si      -2.87513613       0.23700321       1.84335212       0.00000000
Si      -1.60656867      -1.58285043       2.81975377       0.00000000
Si       2.75934681      -1.12765896      -2.11168073       0.00000000
Si      -1.10573262      -3.39993477       1.32460193       0.00000000
Si       2.99905416       1.25399510       2.11396674       0.00000000
Si       1.39856166      -3.09464388      -1.87584111       0.00000000
