10
Lattice="16.28999089631971 0.0 0.0 0.0 16.28999089631971 0.0 0.0 0.0 34.63643526849801" Properties=species:S:1:pos:R:3:initial_magmoms:R:1 pbc="T T T"
Si       0.60558075      -0.16666299      -2.23394741       0.00000000
Si       1.74285311      -0.14128317       1.57588941       0.00000000
Si      -0.93121785      -1.83945051       1.17410654       0.00000000
Si      -0.53888949       2.31717105      -0.01534395       0.00000000
Si       0.38579607       1.01392218       3.14402026       0.00000000
Si      -1.54145754      -0.47100906      -3.11132345       0.00000000
Si       2.07060465      -1.97068438      -2.19439258       0.00000000
Si      -0.95534334      -0.90663624       3.42010744       0.00000000
Si       1.18459251       3.29533668      -1.26630878       0.00000000
Si       3.54184415       1.03643496       0.81191313       0.00000000
