10
Lattice="16.28999089631971 0.0 0.0 0.0 16.28999089631971 0.0 0.0 0.0 34.63643526849801" Properties=species:S:1:pos:R:3:initial_magmoms:R:1 pbc="T T T"
Si      -1.28795256       1.36199061      -1.35874309       0.00000000
Si      -1.34115570      -1.35084825       1.35723294       0.00000000
Si       1.28547648      -1.36658439      -1.43107093       0.00000000
Si       1.37528325       1.36770840       1.35182965       0.00000000
Si       0.59549724       1.99278828      -2.64414071       0.00000000
Si       2.33986302       0.25959744      -2.74495822       0.00000000
Si      -2.68969077      -2.69058672       0.00537211       0.00000000
Si      -2.69946477       0.00628794       2.70847031       0.00000000
Si       0.01381392      -2.70519885       2.70808930       0.00000000
Si      -2.67916743       2.73590550      -0.00769968       0.00000000
