10
Lattice="16.28999089631971 0.0 0.0 0.0 16.28999089631971 0.0 0.0 0.0 34.63643526849801" Properties=species:S:1:pos:R:3:initial_magmoms:R:1 pbc="T T T"
Si       1.35723393      -1.35529542       1.35923839       0.00000000
Si       1.35700587       1.35777150      -1.35826857       0.00000000
Si      -1.35817875      -1.35721764      -1.35816466       0.00000000
Si      -1.35861858       1.35591444       1.36187076       0.00000000
Si       2.71428867       0.00609246       2.71089139       0.00000000
Si       2.71438641      -2.71401174      -0.00128155       0.00000000
Si       2.71479366       2.71391400      -0.00027709       0.00000000
Si      -0.00060273      -2.71381626      -2.71556732       0.00000000
Si       2.71466334      -0.00003258      -2.71473604       0.00000000
Si      -0.00081450       2.71538010      -2.71501313       0.00000000
