10
Lattice="16.28999089631971 0.0 0.0 0.0 16.28999089631971 0.0 0.0 0.0 34.63643526849801" Properties=species:S:1:pos:R:3:initial_magmoms:R:1 pbc="T T T"
Si      -1.28480859       1.34521191      -1.44499825       0.00000000
Si      -1.95118362      -0.80462826       1.18494775       0.00000000
Si       1.42302991      -1.37228589      -1.41379080       0.00000000
Si       1.06659005       1.80310752       1.25986640       0.00000000
Si      -2.56797189       2.71484253      -0.03671464       0.00000000
Si      -2.65144185      -2.73636162      -0.07336001       0.00000000
Si       2.81812832      -2.59652826       0.09057433       0.00000000
Si      -2.64186333      -0.01617597      -2.79665126       0.00000000
Si       0.07225636       2.69640225      -2.79703226       0.00000000
Si       0.07328871      -2.73686661      -2.79762108       0.00000000
