10
Lattice="16.28999089631971 0.0 0.0 0.0 16.28999089631971 0.0 0.0 0.0 34.63643526849801" Properties=species:S:1:pos:R:3:initial_magmoms:R:1 pbc="T T T"
Si       1.34716057       1.35773892      -1.34278261       0.00000000
Si       1.35510743      -1.35842310       1.36225176       0.00000000
Si      -1.36156707       1.35907470       1.36187076       0.00000000
Si      -1.36347300      -1.37018448      -1.36726019       0.00000000
Si      -0.08410527       2.58799230      -2.75009640       0.00000000
Si       2.71372571      -2.71629234       0.00259773       0.00000000
Si       2.71266849       0.00019548       2.71903096       0.00000000
Si       2.71331846       2.71891503       0.00339437       0.00000000
Si      -2.71990872      -2.71404432       0.00841666       0.00000000
Si      -0.00200367       2.71502172       2.71916951       0.00000000
