10
Lattice="16.28999089631971 0.0 0.0 0.0 16.28999089631971 0.0 0.0 0.0 34.63643526849801" Properties=species:S:1:pos:R:3:initial_magmoms:R:1 pbc="T T T"
Si      -1.35778779      -1.35614250      -1.35799148       0.00000000
Si       1.35655996      -1.35663120       1.35913448       0.00000000
Si       1.35722606       1.35897696      -1.35740266       0.00000000
Si      -1.35907470       1.36067112       1.36135121       0.00000000
Si      -0.00050499      -2.70782154       2.71116849       0.00000000
Si       2.71463143      -2.71199178      -0.00076200       0.00000000
Si      -0.00013032      -2.71394658      -2.71445895       0.00000000
Si      -2.71479366      -2.71391400       0.00027709       0.00000000
Si       2.71439523       0.00131949      -2.71508241       0.00000000
Si      -2.71560816       0.00146610      -2.71473604       0.00000000
