10
Lattice="16.28999089631971 0.0 0.0 0.0 16.28999089631971 0.0 0.0 0.0 34.63643526849801" Properties=species:S:1:pos:R:3:initial_magmoms:R:1 pbc="T T T"
Si      -1.35697329       1.35834165      -1.36252885       0.00000000
Si       1.35907470      -1.36067112      -1.36135121       0.00000000
Si       1.35738054       1.34615673       1.37911971       0.00000000
Si      -1.35483930      -1.35764118       1.37652198       0.00000000
Si      -2.71293660       2.71226871      -0.00626920       0.00000000
Si       2.71563466      -2.71730232      -0.00221673       0.00000000
Si       2.71716797       2.71579991       0.00000000       0.00000000
Si      -2.71433754      -2.71867068       0.00079664       0.00000000
Si       0.00104256       2.71362568      -2.71955051       0.00000000
Si      -2.71425609      -0.00100998      -2.71923878       0.00000000
