10
Lattice="16.28999089631971 0.0 0.0 0.0 16.28999089631971 0.0 0.0 0.0 34.63643526849801" Properties=species:S:1:pos:R:3:initial_magmoms:R:1 pbc="T T T"
Si       1.35483930       1.35764118      -1.37652198       0.00000000
Si      -1.35949824      -1.36102950      -1.37572534       0.00000000
Si       1.43024571      -1.34122086       1.38157890       0.00000000
Si      -1.43834184       1.37205783       1.35165301       0.00000000
Si       2.71221984       2.70379791       0.00259773       0.00000000
Si       2.71340901      -2.71085148      -0.02670471       0.00000000
Si      -2.72547990      -2.70050733       0.01423558       0.00000000
Si      -2.71811682       2.72315043      -0.04007438       0.00000000
Si       2.71391400      -0.00302994      -2.73787319       0.00000000
Si      -2.71619460       0.00017919      -2.73728437       0.00000000
