10
Lattice="16.28999089631971 0.0 0.0 0.0 16.28999089631971 0.0 0.0 0.0 34.63643526849801" Properties=species:S:1:pos:R:3:initial_magmoms:R:1 pbc="T T T"
Si      -1.19060352      -1.38163635       1.54725688       0.00000000
Si       1.40511024       1.19646792       1.58886219       0.00000000
Si       1.00378980      -0.64448127      -2.23117650       0.00000000
Si      -1.30740282       2.21483727      -2.56122727       0.00000000
Si      -2.92892571      -2.30174442       0.28020511       0.00000000
Si       0.93322152       2.94417871      -2.24780200       0.00000000
Si       2.52188748       2.91464168       0.37891281       0.00000000
Si      -2.58323562      -0.01668096       2.95345537       0.00000000
Si       2.50022178       1.18965870      -2.81656722       0.00000000
Si       2.61571788      -2.41831566      -1.73054118       0.00000000
