10
Lattice="16.28999089631971 0.0 0.0 0.0 16.28999089631971 0.0 0.0 0.0 34.63643526849801" Properties=species:S:1:pos:R:3:initial_magmoms:R:1 pbc="T T T"
Si       1.35839463      -1.35378037      -1.35809539       0.00000000
Si      -1.35692750      -1.35767368       1.35767975       0.00000000
Si       1.35819752       1.35754582       1.35740266       0.00000000
Si      -1.35624332       1.35809479      -1.36093558       0.00000000
Si      -0.00776326      -2.71495648      -2.70427237       0.00000000
Si       2.70606633       0.00404085      -2.71810963       0.00000000
Si      -2.71468271       0.00047739       2.71442431       0.00000000
Si       0.00026666       2.71486609       2.71504777       0.00000000
Si       0.00057549      -2.71484245       2.71522095       0.00000000
Si      -2.71649090      -2.71362070       0.00038100       0.00000000
