10
Lattice="16.28999089631971 0.0 0.0 0.0 16.28999089631971 0.0 0.0 0.0 34.63643526849801" Properties=species:S:1:pos:R:3:initial_magmoms:R:1 pbc="T T T"
Si       1.35695700       1.34056926       1.36856945       0.00000000
Si      -1.35596331      -1.37329587       1.36822309       0.00000000
Si       1.32372540      -1.36335897      -1.43452419       0.00000000
Si      -1.39144945       1.40866146      -1.39314401       0.00000000
Si      -0.59186457      -2.25430794      -2.66395657       0.00000000
Si      -2.46817935      -0.34376787      -2.51511126       0.00000000
Si      -2.72252845       2.70073539       0.02284274       0.00000000
Si       0.00127062       2.70050733       2.72832739       0.00000000
Si       2.70642060       2.72373687      -0.01737365       0.00000000
Si       2.71482624      -0.01394424       2.72725366       0.00000000
