10
Lattice="16.28999089631971 0.0 0.0 0.0 16.28999089631971 0.0 0.0 0.0 34.63643526849801" Properties=species:S:1:pos:R:3:initial_magmoms:R:1 pbc="T T T"
Si       1.35301808       1.34177472      -1.38040126       0.00000000
Si      -1.35967115      -1.37236734      -1.38119790       0.00000000
Si       1.39468790      -1.35718506       1.39820440       0.00000000
Si      -1.38362766       1.37621178       1.53505303       0.00000000
Si      -0.36533746      -2.26566207       2.67570076       0.00000000
Si      -2.31996057      -0.40539294       2.74258375       0.00000000
Si      -2.71792527       2.69109171       0.00013855       0.00000000
Si       2.70881849       2.70449838       0.00488374       0.00000000
Si       2.71033346      -2.72811888      -0.02130142       0.00000000
Si      -0.00132438       2.69996976      -2.74008993       0.00000000
