10
Lattice="16.28999089631971 0.0 0.0 0.0 16.28999089631971 0.0 0.0 0.0 34.63643526849801" Properties=species:S:1:pos:R:3:initial_magmoms:R:1 pbc="T T T"
Si       1.76002536       0.90847701      -1.27749636       0.00000000
Si      -1.06659005      -1.80310752      -1.25986640       0.00000000
Si       0.74761815       0.71265492       2.42434401       0.00000000
Si       2.13523293      -0.80752788       1.33062868       0.00000000
Si      -1.95462311       1.86026913       0.06688299       0.00000000
Si       0.90009255       3.07433025       1.28120246       0.00000000
Si       0.36533746       2.26566207      -2.67570076       0.00000000
Si      -2.35139864      -0.45789561      -2.70486465       0.00000000
Si      -1.27182776       0.33596496       3.54067694       0.00000000
Si       2.98734654       2.37879612       0.25977341       0.00000000
