10
Lattice="16.28999089631971 0.0 0.0 0.0 16.28999089631971 0.0 0.0 0.0 34.63643526849801" Properties=species:S:1:pos:R:3:initial_magmoms:R:1 pbc="T T T"
Si      -0.39203514       2.08443582      -0.92081015       0.00000000
Si      -1.89220730      -1.14106563       0.73138338       0.00000000
Si       1.21248099      -1.46421036      -1.37091087       0.00000000
Si       1.20378213      -0.40210236       1.98605431       0.00000000
Si       1.77878655      -2.40720588       0.79102735       0.00000000
Si      -1.89821994       3.06348111       0.58099189       0.00000000
Si       1.74944826       3.14589222      -1.00767837       0.00000000
Si      -2.63976911      -0.11890071       2.69378099       0.00000000
Si      -3.62974499      -0.90310131      -0.72850855       0.00000000
Si      -1.75563031       2.04630093       2.74317257       0.00000000
