10
Lattice="16.28999089631971 0.0 0.0 0.0 16.28999089631971 0.0 0.0 0.0 34.63643526849801" Properties=species:S:1:pos:R:3:initial_magmoms:R:1 pbc="T T T"
Si      -1.35768067      -1.35672894      -1.35764511       0.00000000
Si       1.35434246      -1.35819504       1.35968866       0.00000000
Si       1.35680224       1.35826349      -1.35729875       0.00000000
Si      -1.35681346       1.36076513       1.36110876       0.00000000
Si       2.71485068      -2.71422351      -0.00076200       0.00000000
Si      -0.00051151      -2.71438641      -2.71532486       0.00000000
Si       2.71405246       0.00122175      -2.71567122       0.00000000
Si      -2.71518366       0.00043983      -2.71518631       0.00000000
Si      -2.71490673      -2.71570590      -0.00024246       0.00000000
Si      -0.00005864       2.71565933      -2.71546341       0.00000000
