10
Lattice="16.28999089631971 0.0 0.0 0.0 16.28999089631971 0.0 0.0 0.0 34.63643526849801" Properties=species:S:1:pos:R:3:initial_magmoms:R:1 pbc="T T T"
Si      -2.08725399       0.69553413       1.02142905       0.00000000
Si       1.05994143      -1.68438600       1.39997086       0.00000000
Si       1.45583730       1.24354602      -1.52715592       0.00000000
Si      -1.22732118      -1.47031911      -1.53726977       0.00000000
Si      -0.85211361      -3.18632400       1.07085527       0.00000000
Si      -2.23972839      -1.66614120       2.16457060       0.00000000
Si       2.14035939       2.41473186       1.53300948       0.00000000
Si       2.69136864      -2.70632286      -0.09386479       0.00000000
Si      -2.98734654      -2.37879612      -0.25977341       0.00000000
Si       0.08680941       2.59136433      -2.93059043       0.00000000
