10
Lattice="16.290000149 0.0 0.0 0.0 16.290000149 0.0 0.0 0.0 29.1751946751" Properties=species:S:1:pos:R:3:initial_magmoms:R:1 pbc="T T T"
Si      -1.34311051      -1.37906254       1.31288376       0.00000000
Si       1.30341178      -1.34680834      -1.43130588       0.00000000
Si       1.23067693       1.43265176       1.42675455       0.00000000
Si      -1.40162419       1.34060185      -1.35994335       0.00000000
Si       0.20220777      -2.70225038       2.49978903       0.00000000
Si       2.64194480       2.71717202       0.04490062       0.00000000
Si      -2.70787043      -0.00869886       2.65532199       0.00000000
Si      -0.28932669       2.75076201       2.62334598       0.00000000
Si       2.65553066       0.00845451      -2.76741309       0.00000000
Si      -0.06781527       2.70436808      -2.73027307       0.00000000
