10
Lattice="16.290000149 0.0 0.0 0.0 16.290000149 0.0 0.0 0.0 29.1751946751" Properties=species:S:1:pos:R:3:initial_magmoms:R:1 pbc="T T T"
Si       1.58578264      -0.15954426      -1.70794507       0.00000000
Si      -0.39446235       2.29331111      -0.36197664       0.00000000
Si       0.24645141      -0.53517537       2.30372880       0.00000000
Si      -1.89975611      -1.29748222      -0.64596799       0.00000000
H        1.32369283      -2.23449932       1.48449226       0.00000000
H        2.07834338       1.93157374       1.50045109       0.00000000
H       -2.77565313      -0.45219411      -1.55124510       0.00000000
Si      -1.50247558       1.01923273       2.71675037       0.00000000
Si      -2.29169351       2.26836949       0.98492540       0.00000000
Si       0.02378340      -0.93895561      -3.29863504       0.00000000
