10
Lattice="16.290000149 0.0 0.0 0.0 16.290000149 0.0 0.0 0.0 29.1751946751" Properties=species:S:1:pos:R:3:initial_magmoms:R:1 pbc="T T T"
Si      -0.43245063       0.25466157      -2.28439820       0.00000000
Si       0.81163297       1.86173525       1.17765002       0.00000000
Si      -1.87802525      -0.80247799       1.19619086       0.00000000
Si       1.63717759      -1.73359811       0.08534240       0.00000000
Si       2.18891990       0.59425921       2.59165209       0.00000000
Si      -0.67917898      -2.19755360       2.63884880       0.00000000
Si      -2.13711770       1.90332362      -2.18383130       0.00000000
Si      -0.47904003      -2.04125105      -2.95043871       0.00000000
Si       1.72750565      -2.42294204      -2.14266510       0.00000000
Si       0.63838882      -3.51531687       1.23607919       0.00000000
