10
Lattice="16.290000149 0.0 0.0 0.0 16.290000149 0.0 0.0 0.0 29.1751946751" Properties=species:S:1:pos:R:3:initial_magmoms:R:1 pbc="T T T"
Si       1.22401432      -1.53298675       1.24111278       0.00000000
Si      -1.38697948      -1.35159760      -1.29403658       0.00000000
Si      -1.05720472       1.46683306       1.47801536       0.00000000
Si       1.37508778       1.31940856      -1.35650068       0.00000000
Si       0.75671938       2.22161393       2.86389546       0.00000000
Si      -2.37231272       0.10888236       2.86153227       0.00000000
Si      -0.02068830       2.60141528      -2.71658990       0.00000000
Si      -0.02679705      -2.70060509      -2.62693453       0.00000000
Si      -2.50543460       2.81737182       0.19448185       0.00000000
Si      -2.74300797       0.00532683      -2.59717583       0.00000000
