10
Lattice="16.290000149 0.0 0.0 0.0 16.290000149 0.0 0.0 0.0 29.1751946751" Properties=species:S:1:pos:R:3:initial_magmoms:R:1 pbc="T T T"
Si      -0.68455468       2.04965832       0.76920401       0.00000000
Si       2.05630301      -0.60981127       0.89063117       0.00000000
Si      -1.24048351      -1.78872184       0.84301725       0.00000000
Si      -0.63522856      -0.67964487      -2.14630237       0.00000000
Si      -0.67903237      -2.82468440      -1.16531563       0.00000000
H        0.69411691       2.30966301      -2.13684961       0.00000000
Si      -1.29091735       1.53056117       2.95305485       0.00000000
Si      -3.52302204       0.78372983      -0.77483482       0.00000000
Si       1.53099937      -1.86272731       2.82167895       0.00000000
Si       1.08196552       3.53268364       0.43599411       0.00000000
