10
Lattice="16.290000149 0.0 0.0 0.0 16.290000149 0.0 0.0 0.0 29.1751946751" Properties=species:S:1:pos:R:3:initial_magmoms:R:1 pbc="T T T"
Si       1.08159085      -1.42071607      -1.49837965       0.00000000
Si      -1.54531828       1.32318784      -1.18690527       0.00000000
Si      -1.05617845      -1.76292011       1.18060343       0.00000000
Si       2.12789756       0.96964597       0.68024884       0.00000000
Si       0.22061547       0.80718580       3.38575217       0.00000000
Si       2.37713456      -2.71425611      -0.07209191       0.00000000
Si      -0.20220777       2.70225038      -2.49978903       0.00000000
Si      -1.40123323      -0.88011613       3.31570252       0.00000000
Si       2.49640994      -0.09466119      -2.73742099       0.00000000
Si       0.54573130      -3.53905140       1.09211506       0.00000000
