10
Lattice="16.290000149 0.0 0.0 0.0 16.290000149 0.0 0.0 0.0 29.1751946751" Properties=species:S:1:pos:R:3:initial_magmoms:R:1 pbc="T T T"
Si       1.12980925      -0.06151104      -1.00534803       0.00000000
H        0.66650536       0.93022417       1.62085712       0.00000000
H       -0.92406655       1.77345974       0.43911586       0.00000000
Si      -2.28011132       1.19540908       0.16656119       0.00000000
Si      -2.72955243      -1.01398735       0.77620605       0.00000000
Si       0.13286124       0.67228831       3.00667886       0.00000000
Si       1.35371530      -2.19626669      -1.91771472       0.00000000
Si       3.19114587       0.63363214      -0.10266751       0.00000000
Si       0.90297100       1.44961453      -2.84463983       0.00000000
Si      -1.66394207      -0.92380591       2.88233418       0.00000000
