10
Lattice="16.290000149 0.0 0.0 0.0 16.290000149 0.0 0.0 0.0 29.1751946751" Properties=species:S:1:pos:R:3:initial_magmoms:R:1 pbc="T T T"
Si       1.35049477       1.32146110      -1.38685747       0.00000000
Si      -1.33554707      -1.35493705      -1.37604514       0.00000000
Si      -1.35395477       1.36585135       1.35197852       0.00000000
Si       1.36785991      -1.35293338       1.35941820       0.00000000
Si      -2.63206818      -2.67716378       0.08484147       0.00000000
Si       2.70479651       2.69757515      -0.02395283       0.00000000
Si      -0.03636417       2.65580759      -2.75729222       0.00000000
Si      -2.70196857       0.01829367       2.72615937       0.00000000
Si       0.00792997       2.71966439       2.70900435       0.00000000
Si       0.07330174      -2.69382845      -2.74192856       0.00000000
