10
Lattice="16.290000149 0.0 0.0 0.0 16.290000149 0.0 0.0 0.0 29.1751946751" Properties=species:S:1:pos:R:3:initial_magmoms:R:1 pbc="T T T"
H       -0.88374880       0.74859067       0.98597570       0.00000000
Si       1.13414239       1.62904888      -1.21042048       0.00000000
Si       1.40454059      -1.16154217       1.46444890       0.00000000
Si      -1.59360184      -1.11910672      -1.33873298       0.00000000
Si      -1.96099022       2.44791461       1.80521225       0.00000000
Si      -0.62165899       2.82354573      -2.20646162       0.00000000
Si       2.62134284       0.43963452      -2.53587875       0.00000000
Si      -0.05701500      -2.33854355       2.88041737       0.00000000
Si      -2.20744163       2.98308999      -0.49851655       0.00000000
Si       2.86984191      -2.42877386       0.11713841       0.00000000
