10
Lattice="16.290000149 0.0 0.0 0.0 16.290000149 0.0 0.0 0.0 29.1751946751" Properties=species:S:1:pos:R:3:initial_magmoms:R:1 pbc="T T T"
Si       1.36484137       1.35508366       1.34766059       0.00000000
Si       1.36969579      -1.36405945      -1.33639897       0.00000000
Si      -1.34851879      -1.34851879       1.37733177       0.00000000
Si      -1.34884459       1.36122499      -1.36466973       0.00000000
Si      -0.00866628       2.71979471       2.68120039       0.00000000
Si       2.72157032       0.01018125      -2.68414709       0.00000000
Si       2.71625978      -0.02101410       2.68957367       0.00000000
Si      -2.69549003      -2.71210583       0.02640355       0.00000000
Si       0.02521692      -2.72290610      -2.69940571       0.00000000
Si      -2.70656723       0.00353493      -2.71731928       0.00000000
