10
Lattice="16.290000149 0.0 0.0 0.0 16.290000149 0.0 0.0 0.0 29.1751946751" Properties=species:S:1:pos:R:3:initial_magmoms:R:1 pbc="T T T"
Si      -1.37160172      -1.34879572      -1.33561124       0.00000000
Si      -1.36542781       1.34644996       1.35028636       0.00000000
Si       1.32602230      -1.38279295       1.35985582       0.00000000
Si       1.38349880       1.33348312      -1.36828746       0.00000000
Si       0.06908589      -2.68063193      -2.61774434       0.00000000
Si       2.69701641      -0.01361844       2.68370946       0.00000000
Si      -0.00695583       2.70791930       2.68589760       0.00000000
Si      -2.69594615       2.71029764      -0.02704541       0.00000000
Si       0.05385474       2.74035269      -2.68149214       0.00000000
Si      -2.72160290      -0.03029940       2.70579508       0.00000000
