10
Lattice="16.290000149 0.0 0.0 0.0 16.290000149 0.0 0.0 0.0 29.1751946751" Properties=species:S:1:pos:R:3:initial_magmoms:R:1 pbc="T T T"
Si       1.37627695       1.33980364       1.33400660       0.00000000
Si       1.37777563      -1.36708939      -1.31171675       0.00000000
Si      -1.35353611      -1.35159760       1.36137293       0.00000000
Si      -1.35141841       1.37609776      -1.34191308       0.00000000
Si      -0.05665662       2.66323583       2.61578960       0.00000000
Si      -0.00024435      -2.70212006      -2.65748096       0.00000000
Si       2.73432540      -0.01228266      -2.66909268       0.00000000
Si      -2.71625978       0.02101410      -2.68957367       0.00000000
Si       0.01014867      -2.67659363       2.74243912       0.00000000
Si       2.72502381       2.69744483      -0.01852625       0.00000000
