10
Lattice="16.290000149 0.0 0.0 0.0 16.290000149 0.0 0.0 0.0 29.1751946751" Properties=species:S:1:pos:R:3:initial_magmoms:R:1 pbc="T T T"
Si      -1.83037700      -1.29248119       0.63669027       0.00000000
Si       1.82278586      -1.45676584      -0.16288511       0.00000000
Si      -1.03237876       0.82492561      -1.95377526       0.00000000
Si       0.65236564       1.77108140       1.58651791       0.00000000
H       -0.00425169      -1.13292064       3.12087057       0.00000000
Si      -2.56119527       2.08808480      -0.74195438       0.00000000
Si       3.44463456       0.23053608      -0.09283547       0.00000000
Si      -3.48363282       0.36048141       0.54157914       0.00000000
Si      -1.36029646      -1.71097130       2.84831591       0.00000000
Si       2.88318342       1.26649864       1.91549741       0.00000000
