10
Lattice="16.290000149 0.0 0.0 0.0 16.290000149 0.0 0.0 0.0 29.1751946751" Properties=species:S:1:pos:R:3:initial_magmoms:R:1 pbc="T T T"
Si      -1.35783667       1.32276798       1.38839500       0.00000000
Si      -1.44124147      -1.34814412      -1.27977896       0.00000000
Si       1.33770223      -1.39589011       1.37271917       0.00000000
Si       1.35226549       1.35850554      -1.40044727       0.00000000
Si       0.02624319      -2.54511704      -2.62166257       0.00000000
Si       2.65375505       2.63503784       0.10939239       0.00000000
Si      -2.66626577       2.70624143       0.00110574       0.00000000
Si      -2.70829397      -0.08819406       2.69802573       0.00000000
Si      -0.03111390       2.61933428       2.83491574       0.00000000
Si       2.68516217      -0.08045631       2.77863679       0.00000000
