10
Lattice="16.290000149 0.0 0.0 0.0 16.290000149 0.0 0.0 0.0 29.1751946751" Properties=species:S:1:pos:R:3:initial_magmoms:R:1 pbc="T T T"
Si      -1.34431597      -1.33065844       1.33087027       0.00000000
Si       1.50833998      -1.23186773      -1.28098360       0.00000000
Si      -1.25364583       1.37137366      -1.40957036       0.00000000
Si       1.40589217       1.43744590       1.24214850       0.00000000
H       -0.49599792      -0.45286200      -3.33176347       0.00000000
Si       0.65282176       2.16650486      -2.53614424       0.00000000
Si       2.36367902       0.49943511      -2.68433731       0.00000000
Si       0.07798023      -2.67701717       2.60585545       0.00000000
Si      -2.67766877       0.08791713       2.61749635       0.00000000
Si      -2.70930395      -2.61155045      -0.07647110       0.00000000
