10
Lattice="16.290000149 0.0 0.0 0.0 16.290000149 0.0 0.0 0.0 29.1751946751" Properties=species:S:1:pos:R:3:initial_magmoms:R:1 pbc="T T T"
Si       1.24247089      -1.38877138       1.37175930       0.00000000
Si      -1.36018243       1.34900749       1.33289794       0.00000000
Si      -1.29412648      -1.43607754      -1.31320469       0.00000000
Si       1.45624456       1.29826414      -1.30313925       0.00000000
Si       2.68234400      -0.05939334       2.58290916       0.00000000
Si      -2.64924272      -0.07012845      -2.65077066       0.00000000
Si       0.09255978       2.62326017      -2.68420544       0.00000000
Si       0.02679705       2.70060509       2.62693453       0.00000000
Si      -2.60245784      -2.78312535       0.10899853       0.00000000
Si       0.13017339      -2.79893154      -2.61153003       0.00000000
