10
Lattice="16.290000149 0.0 0.0 0.0 16.290000149 0.0 0.0 0.0 29.1751946751" Properties=species:S:1:pos:R:3:initial_magmoms:R:1 pbc="T T T"
Si      -1.36902790       1.34745994       1.33919979       0.00000000
Si      -1.38232054      -1.35034327      -1.32904682       0.00000000
Si       1.36146934      -1.36327753       1.33949154       0.00000000
Si       1.37138995       1.35679411      -1.33826618       0.00000000
Si       0.00899208       2.68249061       2.68496399       0.00000000
Si      -0.04896774      -2.76891884      -2.61567290       0.00000000
Si      -0.00470781      -2.71194293       2.68578090       0.00000000
Si       2.70124040      -0.00081450      -2.70439467       0.00000000
Si      -2.71971326      -0.01746288       2.69459181       0.00000000
Si      -2.71534754       2.70653465      -0.02929190       0.00000000
