10
Lattice="16.290000149 0.0 0.0 0.0 16.290000149 0.0 0.0 0.0 29.1751946751" Properties=species:S:1:pos:R:3:initial_magmoms:R:1 pbc="T T T"
H        0.71864965       0.07866441       1.32507899       0.00000000
H       -1.39479868       0.84100384       1.63039740       0.00000000
Si       1.60912621      -0.78954373      -1.52233248       0.00000000
Si      -1.87237262      -1.46109898      -0.16066780       0.00000000
Si      -0.34458237       1.95089042      -1.36922106       0.00000000
H        1.86496067       1.71390350       0.20343863       0.00000000
H        2.51595794       1.29124315       0.24472153       0.00000000
Si      -0.79487056       0.93020788       3.03109850       0.00000000
Si       0.12271257      -1.80371027      -2.99200374       0.00000000
Si      -0.99797428      -3.24477255      -1.44169224       0.00000000
