10
Lattice="16.290000149 0.0 0.0 0.0 16.290000149 0.0 0.0 0.0 29.1751946751" Properties=species:S:1:pos:R:3:initial_magmoms:R:1 pbc="T T T"
Si       1.32111901       1.33924978       1.39460056       0.00000000
Si      -1.35282750       1.35692443      -1.37037640       0.00000000
Si       1.41421636      -1.39020490      -1.28372315       0.00000000
Si      -1.38001551      -1.35785296       1.36023218       0.00000000
Si       0.01651806      -2.64619649      -2.67290559       0.00000000
Si       2.67949325       2.65026899      -0.00601593       0.00000000
Si       0.13343139       2.54635508      -2.81937703       0.00000000
Si       2.61306263      -2.78528052       0.15893479       0.00000000
Si      -2.85928599      -0.01645290      -2.54193085       0.00000000
Si       2.67351482      -0.02862153       2.74888392       0.00000000
