10
Lattice="16.290000149 0.0 0.0 0.0 16.290000149 0.0 0.0 0.0 29.1751946751" Properties=species:S:1:pos:R:3:initial_magmoms:R:1 pbc="T T T"
Si       1.31155538       1.33561043      -1.36729550       0.00000000
Si      -1.27524637      -1.46333071      -1.29809194       0.00000000
Si      -1.30028410       1.41288954       1.34077525       0.00000000
Si       1.23090499      -1.49172418       1.35959325       0.00000000
H       -1.92132407      -2.28918485      -0.22056447       0.00000000
Si      -2.59076162      -0.02422323       2.62276248       0.00000000
Si       2.54364606       2.69719071       0.07629313       0.00000000
Si      -0.15825735       2.62831007      -2.63781688       0.00000000
Si       2.69074639      -0.05999607      -2.66515403       0.00000000
Si       2.57263574      -2.79384906      -0.06351440       0.00000000
