10
Lattice="16.290000149 0.0 0.0 0.0 16.290000149 0.0 0.0 0.0 29.1751946751" Properties=species:S:1:pos:R:3:initial_magmoms:R:1 pbc="T T T"
Si      -1.33726354      -1.37474569      -1.34477225       0.00000000
Si       1.34409769      -1.35928648       1.36032263       0.00000000
Si      -1.38612263       1.35363385       1.33266454       0.00000000
Si       1.33302049       1.35635428      -1.38340021       0.00000000
Si      -2.66690760       0.03212388      -2.65797694       0.00000000
Si      -0.03521898       2.71513577       2.68610182       0.00000000
Si       2.69106893       0.00430056       2.71125084       0.00000000
Si       2.69074313       2.71404434      -0.03075066       0.00000000
Si       2.70113615      -2.71511948       0.00332597       0.00000000
Si      -2.72076234      -2.70822881       0.02351521       0.00000000
