10
Lattice="16.290000149 0.0 0.0 0.0 16.290000149 0.0 0.0 0.0 29.1751946751" Properties=species:S:1:pos:R:3:initial_magmoms:R:1 pbc="T T T"
Si       1.35090365       1.36150192       1.35343728       0.00000000
Si      -1.34159554      -1.35394336       1.37674826       0.00000000
Si       1.38612263      -1.35363385      -1.33266454       0.00000000
Si      -1.35068536       1.37394748      -1.34932358       0.00000000
Si       2.69063561       0.00187335       2.71451846       0.00000000
Si       0.04885909      -2.72837955      -2.67743679       0.00000000
Si      -2.69337233       2.71769330       0.02657860       0.00000000
Si      -2.70006752      -2.71541270       0.04113702       0.00000000
Si      -2.70601337       0.03536559      -2.71708588       0.00000000
Si       2.70962975       2.71389773      -0.00927771       0.00000000
