10
Lattice="16.290000149 0.0 0.0 0.0 16.290000149 0.0 0.0 0.0 29.1751946751" Properties=species:S:1:pos:R:3:initial_magmoms:R:1 pbc="T T T"
Si      -0.64542610       0.84085723      -1.07951138       0.00000000
Si       2.14677767       0.25101261       1.31478015       0.00000000
Si       2.25228800      -1.47996280      -0.49230223       0.00000000
Si       0.38784861       1.22302063       2.57284372       0.00000000
Si      -2.07695873       2.06786891       0.20562677       0.00000000
Si       0.41865300      -2.66623482      -1.50021769       0.00000000
Si      -2.08529921      -0.48852081      -2.29066123       0.00000000
Si      -0.69411691      -2.30966301       2.13684961       0.00000000
Si      -1.37867158      -0.26000469       2.90605362       0.00000000
Si       0.85460599       2.20281527      -2.24112175       0.00000000
