10
Lattice="16.290000149 0.0 0.0 0.0 16.290000149 0.0 0.0 0.0 29.1751946751" Properties=species:S:1:pos:R:3:initial_magmoms:R:1 pbc="T T T"
Si       1.34631964       1.29197620      -1.36927941       0.00000000
Si      -1.52881651       1.26315919       1.21182089       0.00000000
Si       1.03237876      -0.82492561       1.95377526       0.00000000
Si      -1.41411862      -1.39331629      -1.29759596       0.00000000
Si      -0.79799824      -2.11740680       2.59046554       0.00000000
Si      -2.45125406      -0.46444419       2.49535440       0.00000000
Si       2.60346782       2.60975902       0.09972082       0.00000000
Si      -0.08006535       2.65708310      -2.66401620       0.00000000
Si       2.71107956      -0.07838748      -2.71171764       0.00000000
Si      -0.07516206      -2.72422559      -2.70497817       0.00000000
