10
Lattice="16.290000149 0.0 0.0 0.0 16.290000149 0.0 0.0 0.0 29.1751946751" Properties=species:S:1:pos:R:3:initial_magmoms:R:1 pbc="T T T"
Si      -1.40457431       1.31870809       1.31335056       0.00000000
Si       1.37096478      -1.23831694       1.44417214       0.00000000
Si       1.33152669       1.39667203      -1.34278833       0.00000000
Si      -1.39139570      -1.37616292      -1.31116242       0.00000000
Si       2.56917574      -2.64104885      -0.03083818       0.00000000
Si      -0.11660056       2.72909631       2.63163173       0.00000000
Si       2.63070308       0.03829779      -2.75965249       0.00000000
Si       0.00314886      -2.66585852       2.74343108       0.00000000
Si      -2.73206271      -0.01091430      -2.68613100       0.00000000
Si      -2.72745264       2.69270444      -0.02083109       0.00000000
