10
Lattice="16.290000149 0.0 0.0 0.0 16.290000149 0.0 0.0 0.0 29.1751946751" Properties=species:S:1:pos:R:3:initial_magmoms:R:1 pbc="T T T"
Si      -1.66661851      -0.79524523       1.44711883       0.00000000
Si       1.11142924       1.69432292       1.25555450       0.00000000
Si      -0.52470579       0.66572344      -2.22956838       0.00000000
Si       1.43952614      -1.91998829      -0.02865004       0.00000000
H       -2.83552376      -1.36541152       0.40810262       0.00000000
Si       2.46801159       0.28297359       2.56724208       0.00000000
Si       0.90330657      -2.86692600      -2.10373576       0.00000000
Si      -0.52470579      -2.27983439       2.84468826       0.00000000
Si       3.48970410      -0.94778479       0.72287380       0.00000000
Si       1.67470487      -0.76080817      -3.27593673       0.00000000
