10
Lattice="16.290000149 0.0 0.0 0.0 16.290000149 0.0 0.0 0.0 29.1751946751" Properties=species:S:1:pos:R:3:initial_magmoms:R:1 pbc="T T T"
Si      -0.74753182       2.18437499       0.39404018       0.00000000
Si       1.93059308       0.54298154       1.25482512       0.00000000
Si      -1.64268362      -1.47807316       0.92861727       0.00000000
Si       0.72019720       0.35093384      -2.26364500       0.00000000
H        1.44663346      -2.17758206      -1.28134537       0.00000000
H        1.76541248       1.92761201       1.87949522       0.00000000
Si       2.52892478       1.67865194      -1.65315406       0.00000000
Si       1.18657990       3.22224348      -0.50438077       0.00000000
H       -0.47563542      -2.59164128      -2.52097022       0.00000000
Si      -0.43362351      -2.89813764       2.37849987       0.00000000
