10
Lattice="16.290000149 0.0 0.0 0.0 16.290000149 0.0 0.0 0.0 29.1751946751" Properties=species:S:1:pos:R:3:initial_magmoms:R:1 pbc="T T T"
Si       1.34491870      -1.35408997      -1.34123417       0.00000000
Si       1.31088889       1.18154629       1.54899190       0.00000000
Si      -1.32833548      -1.39898521       1.34071894       0.00000000
Si      -1.20906010       1.42006447      -1.44988260       0.00000000
Si      -0.15863202      -2.63619443      -2.63159468       0.00000000
Si       0.43362351       2.89813764      -2.37849987       0.00000000
Si      -2.71907795      -0.04079016       2.65761137       0.00000000
Si      -2.70451469       2.71360549      -0.11555507       0.00000000
Si      -0.01427004       2.66706120       2.75628771       0.00000000
Si      -2.74211202      -2.69110802      -0.00521507       0.00000000
