10
Lattice="16.290000149 0.0 0.0 0.0 16.290000149 0.0 0.0 0.0 29.1751946751" Properties=species:S:1:pos:R:3:initial_magmoms:R:1 pbc="T T T"
Si      -1.30458466      -1.36348930      -1.34964451       0.00000000
Si       1.31898502      -1.38953701       1.34153380       0.00000000
Si      -1.41587794       1.33444423       1.30275997       0.00000000
Si       1.30640914       1.29134089      -1.47015556       0.00000000
Si      -0.04368978       2.66049911       2.66856753       0.00000000
Si       2.69625566      -0.02648754       2.64945778       0.00000000
Si       2.67724523       2.69371442      -0.15302390       0.00000000
Si       2.64883547      -2.74714563      -0.02459469       0.00000000
Si      -2.76775248      -0.03979647       2.65050809       0.00000000
Si      -2.76829005       2.65430891      -0.10360112       0.00000000
