10
Lattice="16.290000149 0.0 0.0 0.0 16.290000149 0.0 0.0 0.0 29.1751946751" Properties=species:S:1:pos:R:3:initial_magmoms:R:1 pbc="T T T"
Si      -1.35270532       1.35743105       1.34751472       0.00000000
Si       1.35734797       1.37207576      -1.33123496       0.00000000
Si       1.38150604      -1.35633636       1.33027218       0.00000000
Si      -1.36293544      -1.36783710      -1.34057102       0.00000000
Si       2.69070077      -0.04649981      -2.61786104       0.00000000
Si       0.01283652      -2.71288613       2.66877176       0.00000000
Si       0.01995525       2.70495615       2.69240367       0.00000000
Si      -2.68382639       2.72507430      -0.02567417       0.00000000
Si      -2.74791126      -0.02001878      -2.66168219       0.00000000
Si      -2.69597873       0.00403503       2.71673578       0.00000000
