10
Lattice="16.290000149 0.0 0.0 0.0 16.290000149 0.0 0.0 0.0 29.1751946751" Properties=species:S:1:pos:R:3:initial_magmoms:R:1 pbc="T T T"
Si      -1.34801380      -1.34755768       1.37418084       0.00000000
Si       1.35395477      -1.36585135      -1.35197852       0.00000000
Si       1.36188474       1.35381304       1.35702583       0.00000000
Si      -1.36674730       1.36282141      -1.34611431       0.00000000
Si      -2.70334181      -2.68613957       0.00641854       0.00000000
Si      -2.70185942       2.70554096       0.04665114       0.00000000
Si       2.71461449       2.70125669      -0.00965699       0.00000000
Si       2.71230131      -0.00760743       2.71422671       0.00000000
Si      -0.02412549       2.68394042      -2.74780444       0.00000000
Si       2.72181467      -2.71878473       0.00743967       0.00000000
