10
Lattice="16.290000149 0.0 0.0 0.0 16.290000149 0.0 0.0 0.0 29.1751946751" Properties=species:S:1:pos:R:3:initial_magmoms:R:1 pbc="T T T"
Si      -1.36866952      -1.35654976       1.33849958       0.00000000
Si      -1.38150604       1.35633636      -1.33027218       0.00000000
Si       1.35345466       1.36681246       1.35332058       0.00000000
Si       1.35063649      -1.38077299      -1.34243823       0.00000000
Si       0.00097740      -2.69851997       2.69126583       0.00000000
Si      -0.02415807       2.72841213      -2.66150713       0.00000000
Si       2.73149094      -0.03652218      -2.67314804       0.00000000
Si      -2.68889258       0.01218492       2.72099536       0.00000000
Si      -2.74444149      -0.01150074      -2.67084320       0.00000000
Si       2.73061128       0.02239875       2.69079903       0.00000000
