10
Lattice="16.290000149 0.0 0.0 0.0 16.290000149 0.0 0.0 0.0 29.1751946751" Properties=species:S:1:pos:R:3:initial_magmoms:R:1 pbc="T T T"
Si       1.28140399       1.49939677      -1.27682089       0.00000000
Si       1.36935370      -1.35604477       1.36049768       0.00000000
Si      -1.38577402       1.36590022       1.35120830       0.00000000
Si      -1.17670816      -1.45995868      -1.45286343       0.00000000
Si       2.59659344       0.07499916      -2.57546657       0.00000000
Si      -2.53329050      -0.04860936      -2.76455100       0.00000000
Si      -2.66296705      -2.64938933      -0.00386280       0.00000000
Si       0.01097946      -2.66706398       2.76111417       0.00000000
Si       2.70731657       0.01801674       2.72429507       0.00000000
Si      -0.03147228       2.74201428       2.71411293       0.00000000
