10
Lattice="16.290000149 0.0 0.0 0.0 16.290000149 0.0 0.0 0.0 29.1751946751" Properties=species:S:1:pos:R:3:initial_magmoms:R:1 pbc="T T T"
Si      -1.31834971      -1.35415383      -1.32386530       0.00000000
Si       1.32106591      -1.43433614       1.27393488       0.00000000
Si      -1.44068761       1.33183620       1.28213311       0.00000000
Si       1.27765729       1.30943745      -1.47270839       0.00000000
Si       2.63620258      -0.05018460       2.63618307       0.00000000
Si      -0.06908589       2.68063193       2.61774434       0.00000000
Si      -2.71000442       0.00095785      -2.60648563       0.00000000
Si       2.66295076       2.68954256      -0.15990924       0.00000000
Si      -0.07701912      -2.76884553       2.60934189       0.00000000
Si       2.61154766      -2.77888017      -0.17534292       0.00000000
