10
Lattice="16.290000149 0.0 0.0 0.0 16.290000149 0.0 0.0 0.0 29.1751946751" Properties=species:S:1:pos:R:3:initial_magmoms:R:1 pbc="T T T"
Si       2.30106026       0.05885577      -0.44804346       0.00000000
Si      -0.85957444       2.07969545      -0.79572426       0.00000000
Si      -0.14693580       0.41081751       2.36103180       0.00000000
Si      -0.92108548      -2.08497341      -0.81258752       0.00000000
H       -2.30337344       0.21517461       0.89690383       0.00000000
H       -1.01442718       2.87630904       0.47896917       0.00000000
Si      -3.56777067       0.17718633       0.05327391       0.00000000
Si      -2.98175421      -1.36839096      -1.67801132       0.00000000
Si       3.06690204       2.10512414       0.43304741       0.00000000
Si       2.05960988       0.02912652       3.16880542       0.00000000
