10
Lattice="16.290000149 0.0 0.0 0.0 16.290000149 0.0 0.0 0.0 29.1751946751" Properties=species:S:1:pos:R:3:initial_magmoms:R:1 pbc="T T T"
Si      -0.62820757       0.40130415      -2.14854886       0.00000000
Si       1.48716298      -1.80002873       0.11585470       0.00000000
Si       0.97147045       1.99651871       0.87834841       0.00000000
Si      -2.12442779      -0.58564180       1.00196371       0.00000000
H        0.08511525      -0.82262872       2.57462340       0.00000000
H        0.73611253      -1.24528906       2.61590630       0.00000000
H        2.28371141       1.53740134       1.48460896       0.00000000
H        2.85452931       1.41752323      -0.84914404       0.00000000
Si      -2.34833384       1.54911385       1.91433040       0.00000000
Si      -0.17071920      -3.32607594       0.84885229       0.00000000
