10
Lattice="16.290000149 0.0 0.0 0.0 16.290000149 0.0 0.0 0.0 29.1751946751" Properties=species:S:1:pos:R:3:initial_magmoms:R:1 pbc="T T T"
Si      -1.32106591       1.43433614      -1.27393488       0.00000000
Si       1.31513667       1.38415154       1.36224819       0.00000000
Si      -1.39808503      -1.33450939       1.33540701       0.00000000
Si       1.29048176      -1.34454403      -1.44927780       0.00000000
Si      -2.63941562       0.08018231      -2.59780018       0.00000000
Si       2.65643085      -2.69040755      -0.08020261       0.00000000
Si      -0.02905824      -2.69030981       2.67629896       0.00000000
Si       2.66242557       0.02365308       2.71717341       0.00000000
Si       2.64093906       0.06641801      -2.75890852       0.00000000
Si       2.63564481       2.76591171      -0.00603927       0.00000000
