10
Lattice="16.290000149 0.0 0.0 0.0 16.290000149 0.0 0.0 0.0 29.1751946751" Properties=species:S:1:pos:R:3:initial_magmoms:R:1 pbc="T T T"
Si       1.36866952       1.35654976      -1.33849958       0.00000000
Si       1.36964692      -1.34197021       1.35276625       0.00000000
Si      -1.32022306       1.36873468       1.38249577       0.00000000
Si      -1.36409203      -1.36383139      -1.35107409       0.00000000
Si      -0.01902672      -2.70185942       2.66535826       0.00000000
Si      -0.01283652       2.71288613      -2.66877176       0.00000000
Si       2.71930601      -0.02422323      -2.68093781       0.00000000
Si      -2.68327253       0.01861947       2.73228616       0.00000000
Si      -2.70881525       2.71692116       0.04796402       0.00000000
Si      -2.74336635      -0.01615968      -2.68621852       0.00000000
