10
Lattice="16.290000149 0.0 0.0 0.0 16.290000149 0.0 0.0 0.0 29.1751946751" Properties=species:S:1:pos:R:3:initial_magmoms:R:1 pbc="T T T"
Si      -1.37110488      -1.37229242      -1.32928022       0.00000000
Si       1.34802195       1.35313864      -1.37628146       0.00000000
Si       1.40596548      -1.33783907       1.33292712       0.00000000
Si      -1.39584939       1.33650655       1.34944028       0.00000000
Si      -0.01632747       2.69924651       2.68192977       0.00000000
Si       0.06868353      -2.68823121       2.70226488       0.00000000
Si      -2.70422962      -0.00694768      -2.70112705       0.00000000
Si      -2.70097162       2.71579715      -0.02468221       0.00000000
Si      -0.00117125      -2.71206348      -2.70906270       0.00000000
Si       2.70331738       2.72171042      -0.03909476       0.00000000
