10
Lattice="16.290000149 0.0 0.0 0.0 16.290000149 0.0 0.0 0.0 29.1751946751" Properties=species:S:1:pos:R:3:initial_magmoms:R:1 pbc="T T T"
Si      -1.41481909      -1.32605488       1.23904134       0.00000000
Si       1.36125757      -1.37077093      -1.26182717       0.00000000
Si       1.23046516       1.13803570       1.62482494       0.00000000
Si      -1.39520593       1.45010323      -1.19367391       0.00000000
Si      -0.36851238       1.06430716       3.41766983       0.00000000
Si       2.69812901       0.07701912      -2.51805270       0.00000000
Si      -2.49640994       0.09466119       2.73742099       0.00000000
Si      -0.05929560      -2.68125257      -2.57488598       0.00000000
Si       2.52692111       2.72810261       0.34849770       0.00000000
Si      -0.11927538      -2.61959492       2.66532908       0.00000000
