10
Lattice="16.290000149 0.0 0.0 0.0 16.290000149 0.0 0.0 0.0 29.1751946751" Properties=species:S:1:pos:R:3:initial_magmoms:R:1 pbc="T T T"
Si       1.32030288      -1.33654564      -1.40694459       0.00000000
Si       1.39139570       1.37616292       1.31116242       0.00000000
Si      -1.34066701       1.36524862      -1.37496857       0.00000000
Si      -1.35575155      -1.34635222       1.39384493       0.00000000
Si      -0.01317861       2.69487101       2.62451299       0.00000000
Si       2.65008980      -2.69519681      -0.04212898       0.00000000
Si      -2.69946479      -2.67428045      -0.01307049       0.00000000
Si      -2.72396495       2.70954830      -0.03956156       0.00000000
Si       2.67154373       0.02774187      -2.77132257       0.00000000
Si       0.03626040      -2.70208748       2.74348943       0.00000000
