10
Lattice="16.290000149 0.0 0.0 0.0 16.290000149 0.0 0.0 0.0 29.1751946751" Properties=species:S:1:pos:R:3:initial_magmoms:R:1 pbc="T T T"
Si      -1.36070371       1.36976095       1.26302335       0.00000000
Si      -1.41977125      -1.31051422      -1.31224191       0.00000000
Si       1.33649677       1.44705700      -1.25733419       0.00000000
Si       1.29567403      -1.30398193       1.46013097       0.00000000
Si      -2.77421961       0.04193046       2.50133532       0.00000000
Si      -0.03953583      -2.65665467      -2.63309049       0.00000000
Si       2.68323995       0.08250885      -2.60566581       0.00000000
Si       2.68133402      -2.64689696       0.12624107       0.00000000
Si      -0.04940757       2.79103089      -2.60231066       0.00000000
Si      -2.78078448       0.08488719      -2.61640228       0.00000000
