10
Lattice="16.290000149 0.0 0.0 0.0 16.290000149 0.0 0.0 0.0 29.1751946751" Properties=species:S:1:pos:R:3:initial_magmoms:R:1 pbc="T T T"
H        0.44921304       1.28578600      -0.66035136       0.00000000
Si      -0.81450001       0.98417665       1.94405992       0.00000000
Si      -1.87799267      -0.71078158      -1.27367230       0.00000000
Si       2.01372095      -1.36565587      -0.08282838       0.00000000
H        0.96218515      -0.25295112      -2.47580702       0.00000000
H       -0.66044548      -2.66655899      -1.05077381       0.00000000
Si       3.17392734       0.69962293      -0.67954863       0.00000000
Si      -2.31650318       2.29589633       0.65084024       0.00000000
Si       0.78048649      -2.95603230      -1.49379914       0.00000000
Si       1.99596485       0.85297699      -2.69237449       0.00000000
