10
Lattice="16.290000149 0.0 0.0 0.0 16.290000149 0.0 0.0 0.0 29.1751946751" Properties=species:S:1:pos:R:3:initial_magmoms:R:1 pbc="T T T"
Si      -1.39766572       1.42467454      -1.22398694       0.00000000
Si      -1.32817258      -1.38158749       1.37487813       0.00000000
Si       1.19982367      -1.47103588      -1.43113082       0.00000000
Si       1.30792411       1.44777376       1.36852086       0.00000000
H        3.22683726       1.73718191      -0.51689692       0.00000000
Si      -0.00039096       2.65584017      -2.64925355       0.00000000
Si       2.66924684      -2.68095935       0.02398201       0.00000000
Si       2.53337195      -0.14071302      -2.82973131       0.00000000
Si      -2.89857747       0.13525587      -2.50801644       0.00000000
Si       2.73411363       0.08050518       2.70322475       0.00000000
