10
Lattice="16.290000149 0.0 0.0 0.0 16.290000149 0.0 0.0 0.0 29.1751946751" Properties=species:S:1:pos:R:3:initial_magmoms:R:1 pbc="T T T"
Si       1.31157307       1.36023130       1.34402245       0.00000000
Si      -1.37396377       1.26713395      -1.41441052       0.00000000
Si       1.28813176      -1.44793666      -1.32794983       0.00000000
Si      -1.42905655      -1.39128004       1.27855331       0.00000000
Si      -2.18362565      -0.59196232      -2.58964571       0.00000000
Si      -0.55094410      -2.32844375      -2.50997701       0.00000000
Si       2.61925283       2.64885176      -0.12807035       0.00000000
Si       2.62783766      -0.03258000       2.68418501       0.00000000
Si      -0.10875204       2.69027723       2.64468180       0.00000000
Si       2.53592948      -2.82082530       0.08295383       0.00000000
