10
Lattice="16.290000149 0.0 0.0 0.0 16.290000149 0.0 0.0 0.0 29.1751946751" Properties=species:S:1:pos:R:3:initial_magmoms:R:1 pbc="T T T"
Si       1.35508366       1.36917451       1.33601969       0.00000000
Si      -1.32809928       1.36106209      -1.37310136       0.00000000
Si       1.38502468      -1.35521072      -1.33289794       0.00000000
Si      -1.34801380      -1.35290895       1.37552290       0.00000000
Si       2.71019990       0.00501732       2.67285629       0.00000000
Si      -2.69806385      -0.00825903      -2.69759685       0.00000000
Si       0.05761773      -2.69073335       2.70737054       0.00000000
Si       0.02836089      -2.71779104      -2.68306760       0.00000000
Si      -2.69379587       2.71148681      -0.02287335       0.00000000
Si      -0.02321325       2.71235018       2.69453345       0.00000000
