10
Lattice="16.290000149 0.0 0.0 0.0 16.290000149 0.0 0.0 0.0 29.1751946751" Properties=species:S:1:pos:R:3:initial_magmoms:R:1 pbc="T T T"
Si      -1.91989055       1.31000923      -0.04411289       0.00000000
Si       1.59190768       1.70549786       0.03118828       0.00000000
Si       0.33330969      -0.86825701      -2.14504784       0.00000000
Si       0.21857922      -1.50092803       1.85075765       0.00000000
H       -0.89888221      -1.44865342       2.86255340       0.00000000
H       -2.16044498       2.49616559       1.19169000       0.00000000
Si       1.03534354       2.67240710       2.05396288       0.00000000
Si       2.28289691      -0.79944805       2.74022181       0.00000000
H       -1.83267389       0.41236506       3.17787890       0.00000000
Si       1.38846187       0.90150490      -3.32337560       0.00000000
