10
Lattice="16.290000149 0.0 0.0 0.0 16.290000149 0.0 0.0 0.0 29.1751946751" Properties=species:S:1:pos:R:3:initial_magmoms:R:1 pbc="T T T"
Si      -1.37182978      -1.40638087      -1.31168758       0.00000000
Si      -1.34653141       1.27891162       1.46051025       0.00000000
Si       1.33908688      -1.33678999       1.42159054       0.00000000
Si       1.34185618       1.41775129      -1.35985874       0.00000000
Si       2.67224420      -0.02169828      -2.67467390       0.00000000
Si       0.06027300      -2.77744503      -2.59595922       0.00000000
Si      -2.67950954      -2.69500133       0.16040522       0.00000000
Si      -2.77938354       2.59861340       0.17741436       0.00000000
Si      -2.72043002      -0.04434138      -2.68820535       0.00000000
Si       2.68788260       2.75037105       0.02961282       0.00000000
