10
Lattice="16.290000149 0.0 0.0 0.0 16.290000149 0.0 0.0 0.0 29.1751946751" Properties=species:S:1:pos:R:3:initial_magmoms:R:1 pbc="T T T"
Si       1.35637057       1.34009686      -1.31503981       0.00000000
Si       1.43285212      -1.31970178       1.28309589       0.00000000
Si      -1.33631758       1.44093196       1.28919350       0.00000000
Si      -1.30468240      -1.29489211      -1.47554714       0.00000000
Si      -0.04958676       2.70428663      -2.56877086       0.00000000
Si       0.05295879      -2.63720441       2.64703624       0.00000000
Si      -2.67160889      -2.64396476      -0.12367365       0.00000000
Si      -2.70011639       0.07991874       2.61923228       0.00000000
Si       2.77938354      -2.59861340      -0.17741436       0.00000000
Si       2.76793167       0.08464284       2.62150794       0.00000000
