10
Lattice="16.290000149 0.0 0.0 0.0 16.290000149 0.0 0.0 0.0 29.1751946751" Properties=species:S:1:pos:R:3:initial_magmoms:R:1 pbc="T T T"
Si      -1.36959479       1.34674318      -1.35372903       0.00000000
Si      -1.33170100      -1.39460320       1.34558915       0.00000000
Si       1.29973024      -1.35555607      -1.41595972       0.00000000
Si       1.35687556       1.37999107       1.34579338       0.00000000
Si       2.77281867       0.01078398       2.60893343       0.00000000
Si       2.60885981      -2.78071932      -0.11579635       0.00000000
Si      -2.74535373      -0.08024454       2.65319220       0.00000000
Si      -0.00920385       2.69752628      -2.70632023       0.00000000
Si      -2.71772588      -0.03109761      -2.70480312       0.00000000
Si      -2.71719639       2.70925508       0.01003627       0.00000000
