10
Lattice="16.290000149 0.0 0.0 0.0 16.290000149 0.0 0.0 0.0 29.1751946751" Properties=species:S:1:pos:R:3:initial_magmoms:R:1 pbc="T T T"
Si       1.37989333       1.31750263      -1.36394035       0.00000000
Si      -1.37340991      -1.32636439      -1.36338602       0.00000000
Si       1.35540946      -1.37090125       1.33867463       0.00000000
Si      -1.36967950       1.37872045       1.32216147       0.00000000
Si      -0.05295879       2.63720441      -2.64703624       0.00000000
Si       0.04691520      -2.65641032      -2.66404538       0.00000000
Si       2.72575685      -0.00923643       2.66559166       0.00000000
Si      -2.72984565       0.01627371       2.66617517       0.00000000
Si      -0.01549179       2.73230543       2.68227987       0.00000000
Si      -0.00084708      -2.72642475       2.69654654       0.00000000
