10
Lattice="16.290000149 0.0 0.0 0.0 16.290000149 0.0 0.0 0.0 29.1751946751" Properties=species:S:1:pos:R:3:initial_magmoms:R:1 pbc="T T T"
Si      -1.34239375       1.35650089       1.34284260       0.00000000
Si       1.39766572      -1.42467454       1.22398694       0.00000000
Si       1.39727476       1.23116563      -1.42526661       0.00000000
Si      -1.50091174      -1.28941867      -1.28402949       0.00000000
H        0.51064263       2.08844318      -2.30256471       0.00000000
Si       2.70558983       0.02309922       2.59250780       0.00000000
Si      -2.55819791       2.77296528      -0.10392204       0.00000000
Si      -2.66538611      -0.04614957       2.68470433       0.00000000
Si       2.42903450      -0.25366788      -2.89896404       0.00000000
Si       0.06949314      -2.80626204       2.59886507       0.00000000
