10
Lattice="16.290000149 0.0 0.0 0.0 16.290000149 0.0 0.0 0.0 29.1751946751" Properties=species:S:1:pos:R:3:initial_magmoms:R:1 pbc="T T T"
Si      -1.34685721      -1.35707104      -1.36210231       0.00000000
Si      -1.36995643       1.36371736       1.33575711       0.00000000
Si       1.35148357       1.37588599      -1.34631853       0.00000000
Si       1.34581465      -1.35930277       1.36881261       0.00000000
Si      -0.00495216       2.71852409       2.68324265       0.00000000
Si      -2.70728399      -2.70171281       0.00965699       0.00000000
Si      -2.69961140       0.01037673      -2.71775691       0.00000000
Si       0.03117906      -2.70567128      -2.71244702       0.00000000
Si       2.77180869       0.04584006      -2.64697789       0.00000000
Si       2.71678106      -2.70505226       0.03045890       0.00000000
