10
Lattice="16.290000149 0.0 0.0 0.0 16.290000149 0.0 0.0 0.0 29.1751946751" Properties=species:S:1:pos:R:3:initial_magmoms:R:1 pbc="T T T"
Si       1.38976507       1.34521192       1.27518357       0.00000000
Si       1.25789752      -1.40063050      -1.36492064       0.00000000
Si      -1.31453785       1.26426691      -1.47231161       0.00000000
Si      -1.41077917      -1.40454010       1.25764928       0.00000000
Si      -2.17179911      -0.67181590      -2.51225267       0.00000000
Si      -0.46815831      -2.34061238      -2.63938358       0.00000000
Si      -0.03572397       2.70492194       2.54523815       0.00000000
Si       2.71920339      -0.06377535       2.58637517       0.00000000
Si       2.57909798      -0.07475481      -2.73082419       0.00000000
Si       2.68498298       2.65952171      -0.19423094       0.00000000
