10
Lattice="16.290000149 0.0 0.0 0.0 16.290000149 0.0 0.0 0.0 29.1751946751" Properties=species:S:1:pos:R:3:initial_magmoms:R:1 pbc="T T T"
Si      -1.25278246       1.10862248      -1.60250592       0.00000000
Si      -1.89625376      -0.01665490       1.33806195       0.00000000
Si       1.57014424       1.68962162       0.44395894       0.00000000
Si       0.43963452      -2.28870592       0.30137976       0.00000000
H        1.84018358       0.57949395      -2.38594742       0.00000000
H       -2.07316316       1.37023988       1.95071187       0.00000000
Si      -1.06245010      -1.26087208       3.05151238       0.00000000
Si       2.05161149      -2.46046769      -1.37963661       0.00000000
Si       0.84136222       2.32232523       2.62356479       0.00000000
Si      -2.58564656       2.65498332      -0.44433821       0.00000000
