10
Lattice="16.290000149 0.0 0.0 0.0 16.290000149 0.0 0.0 0.0 29.1751946751" Properties=species:S:1:pos:R:3:initial_magmoms:R:1 pbc="T T T"
Si       1.53673345      -1.27161370      -1.19910050       0.00000000
Si       1.39525480       1.32201496       1.36442758       0.00000000
Si      -1.21671640      -1.43373178       1.44314225       0.00000000
Si      -1.46942317       1.20992347      -1.45511283       0.00000000
H        0.35627859      -1.81050320      -2.25130390       0.00000000
Si      -2.66924684       2.68095935      -0.02398201       0.00000000
Si       2.85407563       2.50214402      -0.05184432       0.00000000
Si      -2.64881918      -0.06266763       2.72741390       0.00000000
Si      -0.13587489       2.54024633      -2.85371332       0.00000000
Si       0.06486678       2.76146454       2.67924274       0.00000000
