10
Lattice="16.290000149 0.0 0.0 0.0 16.290000149 0.0 0.0 0.0 29.1751946751" Properties=species:S:1:pos:R:3:initial_magmoms:R:1 pbc="T T T"
Si       0.81450001      -0.98417665      -1.94405992       0.00000000
Si      -1.33354828      -1.33032286       1.39860048       0.00000000
Si       1.59361813       1.13287177       1.33590299       0.00000000
Si      -1.50200317       1.31171968      -1.29321968       0.00000000
H        1.26371305       0.30160935      -2.60441128       0.00000000
H        0.69346531       1.87789493       2.31283438       0.00000000
Si      -2.53376291       2.79655320       0.18047775       0.00000000
Si      -1.06349266      -1.69495823      -3.21773222       0.00000000
Si      -2.89632945      -2.45731394      -0.06754058       0.00000000
Si      -2.53337195       0.14071302       2.82973131       0.00000000
