10
Lattice="16.290000149 0.0 0.0 0.0 16.290000149 0.0 0.0 0.0 29.1751946751" Properties=species:S:1:pos:R:3:initial_magmoms:R:1 pbc="T T T"
Si      -1.33449310      -1.33962771       1.32802569       0.00000000
Si       1.49649715      -1.23543524      -1.28149709       0.00000000
Si      -1.24779772       1.37288863      -1.41090366       0.00000000
Si       1.41918481       1.42980589       1.23466506       0.00000000
Si       0.65816488       2.16253010      -2.53523689       0.00000000
H       -0.55271971      -0.45835173      -3.33522073       0.00000000
Si       2.36180567       0.49373361      -2.66236780       0.00000000
Si       0.09907578      -2.68613957       2.58964863       0.00000000
Si      -2.66499515       0.07993503       2.61389322       0.00000000
Si      -2.69444747      -2.62272267      -0.08165845       0.00000000
