10
Lattice="16.290000149 0.0 0.0 0.0 16.290000149 0.0 0.0 0.0 29.1751946751" Properties=species:S:1:pos:R:3:initial_magmoms:R:1 pbc="T T T"
Si      -2.04312440       0.64642956      -0.94959424       0.00000000
Si       1.15347862      -0.49999060      -1.98394241       0.00000000
Si       0.94332133       2.04401872       0.74860632       0.00000000
Si      -0.76662370      -1.58909114       1.60483993       0.00000000
H       -1.39256695       2.23982452       1.64130893       0.00000000
H        0.09298332      -1.52140619      -2.75501363       0.00000000
Si      -2.66566304       2.17204183       0.80701506       0.00000000
Si      -1.31955517       1.21524379      -3.13163622       0.00000000
Si      -2.27541980      -2.89952392       0.37854815       0.00000000
H        0.42075441      -3.60520672      -0.76882473       0.00000000
