10
Lattice="16.290000149 0.0 0.0 0.0 16.290000149 0.0 0.0 0.0 29.1751946751" Properties=species:S:1:pos:R:3:initial_magmoms:R:1 pbc="T T T"
Si      -1.38565999       1.34291503       1.33388990       0.00000000
Si      -1.36537894      -1.33975477      -1.37158425       0.00000000
Si       1.34449516       1.37143882      -1.36306510       0.00000000
Si       1.33887511      -1.36632376       1.37563960       0.00000000
Si      -2.68133402       2.64689696      -0.12624107       0.00000000
Si       2.65980516      -2.70174539      -0.03124663       0.00000000
Si       0.00110772       2.70171281       2.66220734       0.00000000
Si      -2.73281043      -0.04668714       2.68207565       0.00000000
Si       2.73052005       0.00793323       2.68732718       0.00000000
Si      -0.01780497      -2.68716584      -2.73777109       0.00000000
