10
Lattice="16.290000149 0.0 0.0 0.0 16.290000149 0.0 0.0 0.0 29.1751946751" Properties=species:S:1:pos:R:3:initial_magmoms:R:1 pbc="T T T"
Si       1.41592681      -1.34234276       1.25611758       0.00000000
Si      -1.49649715       1.23543524       1.28149709       0.00000000
Si      -1.03850380      -1.85402845      -0.95292313       0.00000000
Si       0.86530852       1.72916885      -1.38087072       0.00000000
H       -2.04921686       0.77708351      -2.05372364       0.00000000
Si      -1.87230746      -0.60981127      -2.66637356       0.00000000
Si      -0.07731234       2.66524113       2.51616215       0.00000000
Si       2.64751598      -2.54459413      -0.33817260       0.00000000
Si      -0.83833228       3.39796534      -1.25373981       0.00000000
Si      -0.04352688      -2.77980545       2.47015287       0.00000000
