10
Lattice="16.290000149 0.0 0.0 0.0 16.290000149 0.0 0.0 0.0 29.1751946751" Properties=species:S:1:pos:R:3:initial_magmoms:R:1 pbc="T T T"
H       -0.64581706      -0.82701073       1.07665221       0.00000000
Si       1.23382090      -1.36542781      -1.42086116       0.00000000
Si      -1.57631815       1.08631495      -1.32321178       0.00000000
Si       1.27071775       1.46548099       1.29978410       0.00000000
H       -2.09481257      -1.73478728       0.53988698       0.00000000
Si      -3.17466039       1.01532313       0.46715322       0.00000000
H       -1.27770616      -2.48261231       2.18186693       0.00000000
Si       2.49913037      -0.02754639       2.65765601       0.00000000
Si      -0.28188216       2.67833666      -2.59735088       0.00000000
Si       2.54958050      -2.74484874      -0.08813826       0.00000000
