10
Lattice="16.290000149 0.0 0.0 0.0 16.290000149 0.0 0.0 0.0 29.1751946751" Properties=species:S:1:pos:R:3:initial_magmoms:R:1 pbc="T T T"
H        0.71366491       0.09143577       1.32580837       0.00000000
H       -1.39644397       0.83272852       1.63030988       0.00000000
Si       1.61085295      -0.78946228      -1.52011517       0.00000000
Si      -1.88009408      -1.45108063      -0.14891019       0.00000000
Si      -0.34603218       1.94790935      -1.36925024       0.00000000
H        1.86500954       1.71729182       0.19920823       0.00000000
H        2.51677244       1.29637450       0.23976175       0.00000000
Si      -0.79845436       0.93196720       3.03071922       0.00000000
Si       0.12448818      -1.79325209      -2.99544641       0.00000000
Si      -1.00260064      -3.21821985      -1.44105039       0.00000000
