10
Lattice="16.290000149 0.0 0.0 0.0 16.290000149 0.0 0.0 0.0 29.1751946751" Properties=species:S:1:pos:R:3:initial_magmoms:R:1 pbc="T T T"
Si      -1.41594310       1.36920709      -1.26314005       0.00000000
Si      -1.30243438      -1.24403473       1.49397419       0.00000000
Si       1.18622152      -1.44852310      -1.41327561       0.00000000
Si       1.86320135       0.92422945       1.10180123       0.00000000
Si       3.46341693      -0.84795967       1.01342956       0.00000000
Si      -0.03873762       2.69752628      -2.61751094       0.00000000
Si       2.58124826      -2.73360863      -0.05490772       0.00000000
Si       2.57061089      -0.11236842      -2.75320477       0.00000000
Si       0.14625162      -2.58724298       2.78442223       0.00000000
Si      -2.77281867      -0.01078398      -2.60893343       0.00000000
