10
Lattice="16.290000149 0.0 0.0 0.0 16.290000149 0.0 0.0 0.0 29.1751946751" Properties=species:S:1:pos:R:3:initial_magmoms:R:1 pbc="T T T"
Si      -1.18941436      -1.14838050      -1.69256974       0.00000000
Si       0.59269537      -1.74040244       1.51448436       0.00000000
Si      -1.99845722       0.88088665       0.97436398       0.00000000
Si       1.43560215       1.42669939      -1.34634771       0.00000000
H        0.47705265       2.27917139       2.01726049       0.00000000
Si      -2.73241946       2.20668089      -0.81579679       0.00000000
Si      -2.47990817      -2.58679827      -0.41061169       0.00000000
Si      -2.62339049       0.47785575      -2.62072021       0.00000000
Si      -3.52010613      -0.96659485       0.90247630       0.00000000
H       -0.74039680       0.11014484       3.73792594       0.00000000
