10
Lattice="16.290000149 0.0 0.0 0.0 16.290000149 0.0 0.0 0.0 29.1751946751" Properties=species:S:1:pos:R:3:initial_magmoms:R:1 pbc="T T T"
Si       1.83181052       1.02157849      -0.94372710       0.00000000
Si       1.40595733      -1.36418977       1.25373105       0.00000000
Si      -1.32063031       1.48831951       1.20903465       0.00000000
Si      -1.30334662      -1.18447849      -1.55287133       0.00000000
Si       0.99800686       2.26579567      -2.65717754       0.00000000
Si      -2.67126680       0.09353718       2.51891045       0.00000000
Si      -2.62633898      -2.58712895      -0.21100960       0.00000000
Si       0.04958676      -2.70428663       2.56877086       0.00000000
Si       2.74463697      -2.51788016      -0.30320613       0.00000000
Si       2.82678744       0.09580149       2.47934889       0.00000000
