10
Lattice="16.290000149 0.0 0.0 0.0 16.290000149 0.0 0.0 0.0 29.1751946751" Properties=species:S:1:pos:R:3:initial_magmoms:R:1 pbc="T T T"
Si       1.41977125       1.31051422       1.31224191       0.00000000
Si       1.38023542      -1.34614045      -1.32084859       0.00000000
Si      -1.34873056      -1.35738055       1.35402078       0.00000000
Si      -1.36101322       1.39540141      -1.30416038       0.00000000
Si       0.05906754       2.68027517       2.57526526       0.00000000
Si       0.00988803      -2.70780527      -2.64776562       0.00000000
Si      -2.71520093       0.04181643      -2.66427878       0.00000000
Si       2.73210995       0.04502556      -2.64826160       0.00000000
Si       0.01361844       2.73766484      -2.64677366       0.00000000
Si       2.73572633      -2.67613751       0.06689872       0.00000000
