10
Lattice="16.290000149 0.0 0.0 0.0 16.290000149 0.0 0.0 0.0 29.1751946751" Properties=species:S:1:pos:R:3:initial_magmoms:R:1 pbc="T T T"
Si      -1.61197696       0.17176176       1.68101637       0.00000000
Si       0.83616571       1.92709561      -1.02294068       0.00000000
Si       1.77199364      -1.15711129       1.02515799       0.00000000
Si      -1.56326986      -0.78019327      -1.59089419       0.00000000
H       -0.21142791       3.03996164      -1.00631081       0.00000000
Si      -2.05161149       2.46046769       1.37963661       0.00000000
Si       0.61783084      -2.79547806       2.20932079       0.00000000
Si       1.12166425       1.18941436      -3.22975240       0.00000000
Si      -2.47779047      -2.61663014      -0.41980188       0.00000000
Si      -0.41754528      -0.65083438      -3.65130479       0.00000000
