10
Lattice="16.290000149 0.0 0.0 0.0 16.290000149 0.0 0.0 0.0 29.1751946751" Properties=species:S:1:pos:R:3:initial_magmoms:R:1 pbc="T T T"
Si       1.36039094       1.35078310      -1.35259120       0.00000000
Si       1.36959479      -1.34674318       1.35372903       0.00000000
Si      -1.34760159       1.36251190       1.36376530       0.00000000
Si      -1.34813109      -1.37784079      -1.35107409       0.00000000
Si      -2.69151853      -0.04756680       2.67419834       0.00000000
Si       2.66932504      -2.70229925      -0.06223069       0.00000000
Si      -0.02838207       2.70010010      -2.68280503       0.00000000
Si      -2.69072032      -0.01987380      -2.71991587       0.00000000
Si       2.67896872      -0.01207089      -2.74276005       0.00000000
Si       2.72647036       0.03324789       2.69952241       0.00000000
