10
Lattice="16.290000149 0.0 0.0 0.0 16.290000149 0.0 0.0 0.0 29.1751946751" Properties=species:S:1:pos:R:3:initial_magmoms:R:1 pbc="T T T"
Si       1.34799751       1.36197433       1.34973203       0.00000000
Si      -1.34309585       1.35824392      -1.36280252       0.00000000
Si       1.35928648      -1.35545833      -1.35346646       0.00000000
Si      -1.36836816      -1.36440154       1.34389699       0.00000000
Si      -0.03363885      -2.69840594      -2.68257162       0.00000000
Si       2.69118947      -0.02013444       2.69345397       0.00000000
Si      -2.67809720      -0.01839141      -2.70777899       0.00000000
Si      -0.04157208       2.71135649       2.68262998       0.00000000
Si       2.69661404       2.70997184      -0.02736633       0.00000000
Si       2.68920209      -2.72530073       0.01893470       0.00000000
