10
Lattice="16.290000149 0.0 0.0 0.0 16.290000149 0.0 0.0 0.0 29.1751946751" Properties=species:S:1:pos:R:3:initial_magmoms:R:1 pbc="T T T"
Si      -0.48075048       2.02820276      -1.05970142       0.00000000
Si       1.59365071       0.81252892       1.56090209       0.00000000
Si       1.29992572      -1.50034159      -1.32335766       0.00000000
Si      -1.86872366      -0.87829165       1.29275288       0.00000000
H       -2.80305291      -0.70542217      -1.25616718       0.00000000
H        1.03136878       1.18767133      -2.76461227       0.00000000
H       -1.07874010       1.92896408      -2.46011077       0.00000000
Si      -2.19763505       2.47669904       0.46128900       0.00000000
Si       2.22337325      -2.54361836       0.51295827       0.00000000
Si       3.29491317      -0.78426577       1.57621907       0.00000000
