10
Lattice="16.290000149 0.0 0.0 0.0 16.290000149 0.0 0.0 0.0 29.1751946751" Properties=species:S:1:pos:R:3:initial_magmoms:R:1 pbc="T T T"
Si      -0.64236358       0.83940742      -1.08248725       0.00000000
Si       2.14869989       0.24840621       1.30748635       0.00000000
Si       2.25772886      -1.48041892      -0.49743707       0.00000000
Si       0.38753910       1.20863656       2.57021795       0.00000000
Si      -2.06628878       2.07396137       0.20399296       0.00000000
Si       0.41353794      -2.66487787      -1.49120255       0.00000000
Si      -2.08857350      -0.49462956      -2.28348414       0.00000000
Si      -1.38383551      -0.27360684       2.90517836       0.00000000
Si       0.86048668       2.20130030      -2.24258051       0.00000000
Si      -0.71482150      -2.34113855       2.15735977       0.00000000
