10
Lattice="16.290000149 0.0 0.0 0.0 16.290000149 0.0 0.0 0.0 29.1751946751" Properties=species:S:1:pos:R:3:initial_magmoms:R:1 pbc="T T T"
Si      -1.36894645       1.34822557      -1.34080442       0.00000000
Si      -1.37463166      -1.34226343       1.34261328       0.00000000
Si       1.35583300      -1.35272161      -1.36519488       0.00000000
Si       1.35674524       1.36388026       1.35670490       0.00000000
Si       0.01120752       2.69182478      -2.67513195       0.00000000
Si      -0.01361844      -2.73766484       2.64677366       0.00000000
Si       2.71849151      -2.69263928      -0.00148793       0.00000000
Si      -2.72658764       0.02767671       2.69342480       0.00000000
Si       2.71147052       0.01783755      -2.71116332       0.00000000
Si      -2.72881937      -2.69584841      -0.01750512       0.00000000
