10
Lattice="16.290000149 0.0 0.0 0.0 16.290000149 0.0 0.0 0.0 29.1751946751" Properties=species:S:1:pos:R:3:initial_magmoms:R:1 pbc="T T T"
Si       1.36117612       1.36300060      -1.34103782       0.00000000
Si       1.38590434      -1.34397388       1.34497647       0.00000000
Si      -1.35138583       1.38474775       1.33882051       0.00000000
Si      -1.35674524      -1.36388026      -1.35670490       0.00000000
Si      -2.70614369       0.02994102       2.67273958       0.00000000
Si       0.04940757      -2.79103089       2.60231066       0.00000000
Si       0.00110772       2.71612458      -2.69301634       0.00000000
Si       2.69208542       2.71853061       0.04215816       0.00000000
Si       2.71220357       0.00213399      -2.70063107       0.00000000
Si      -2.72569169      -0.01565469      -2.69750932       0.00000000
