10
Lattice="16.290000149 0.0 0.0 0.0 16.290000149 0.0 0.0 0.0 29.1751946751" Properties=species:S:1:pos:R:3:initial_magmoms:R:1 pbc="T T T"
Si       1.36692649       1.34907265      -1.35187349       0.00000000
Si      -1.34410420      -1.36927225      -1.36167927       0.00000000
Si       1.35115777      -1.31960404       1.40732387       0.00000000
Si      -1.36332640       1.37292121       1.34906100       0.00000000
Si       2.67160889       2.64396476       0.12367365       0.00000000
Si      -2.69993720      -2.68511330       0.03588549       0.00000000
Si       0.08594604      -2.74274733      -2.65176845       0.00000000
Si      -0.00431685       2.76112245      -2.65610681       0.00000000
Si       2.77148289      -2.64964997       0.10666451       0.00000000
Si      -2.71700912      -0.01816335      -2.72339939       0.00000000
