10
Lattice="16.290000149 0.0 0.0 0.0 16.290000149 0.0 0.0 0.0 29.1751946751" Properties=species:S:1:pos:R:3:initial_magmoms:R:1 pbc="T T T"
Si      -0.96746311       1.86911462      -0.89089374       0.00000000
Si      -1.77137462      -1.48224340       0.33496041       0.00000000
Si       0.39268674       0.65780650       2.21994056       0.00000000
Si       1.76116079      -0.96023035      -1.26273160       0.00000000
H       -0.38753910      -1.20863656      -2.57021795       0.00000000
Si       1.87804154      -1.21016782       2.57424413       0.00000000
Si       2.49512303      -2.28602459       0.52742917       0.00000000
Si      -2.45382788       0.86532481      -2.36622499       0.00000000
Si      -3.58091670      -0.55964296      -0.81182897       0.00000000
Si      -1.10236060      -3.54977511      -0.41285818       0.00000000
