10
Lattice="16.290000149 0.0 0.0 0.0 16.290000149 0.0 0.0 0.0 29.1751946751" Properties=species:S:1:pos:R:3:initial_magmoms:R:1 pbc="T T T"
Si      -1.56753784       1.27909081      -1.12502468       0.00000000
Si      -1.39486384      -1.43273809       1.17736498       0.00000000
Si       1.56278116       1.12699108       1.46614106       0.00000000
Si       1.06833079      -1.10835532      -1.87074266       0.00000000
Si       2.09093555      -2.44317422      -0.25116925       0.00000000
Si       0.30639861      -3.02953278       1.19268196       0.00000000
Si       0.05701500       2.30817899      -2.51463920       0.00000000
Si       1.83283679       0.76235572      -3.15019165       0.00000000
Si      -2.53561997       2.73328284       0.38925545       0.00000000
Si      -2.98851456      -2.24526701      -0.38353711       0.00000000
