10
Lattice="16.290000149 0.0 0.0 0.0 16.290000149 0.0 0.0 0.0 29.1751946751" Properties=species:S:1:pos:R:3:initial_magmoms:R:1 pbc="T T T"
Si      -1.49232691       1.26192115       1.28475887       0.00000000
Si       1.29818253       1.35651718      -1.44493069       0.00000000
Si      -1.42500034      -1.27263997      -1.40475645       0.00000000
Si       1.28615769      -1.34438113       1.50360201       0.00000000
H        1.46606418       1.33051834       2.92370461       0.00000000
Si      -2.88186393      -0.56439964       2.03415292       0.00000000
Si      -2.77283496      -2.29322477       0.22922950       0.00000000
Si       2.50381375      -2.62978269      -0.10511823       0.00000000
Si       2.60191864       0.35991126       2.64400202       0.00000000
Si       2.65770049       2.76420126      -0.13058817       0.00000000
