10
Lattice="16.290000149 0.0 0.0 0.0 16.290000149 0.0 0.0 0.0 29.1751946751" Properties=species:S:1:pos:R:3:initial_magmoms:R:1 pbc="T T T"
Si      -0.24844531       0.83043163       2.16132760       0.00000000
Si      -1.77490955      -1.00010827      -1.14880247       0.00000000
Si       0.91264726       1.73066591      -1.28578000       0.00000000
Si       1.61031538      -1.70540012       0.07734344       0.00000000
H        3.16315965       0.66226996       0.49968356       0.00000000
Si      -0.44238102      -2.30506760      -2.57815360       0.00000000
Si      -2.52296264       1.31266450       2.04030889       0.00000000
Si       3.40371408      -0.52388640      -0.73611934       0.00000000
Si       2.40536513       0.48091338      -2.56312838       0.00000000
Si       2.14496948      -2.04957524       2.28494290       0.00000000
