10
Lattice="16.290000149 0.0 0.0 0.0 16.290000149 0.0 0.0 0.0 29.1751946751" Properties=species:S:1:pos:R:3:initial_magmoms:R:1 pbc="T T T"
Si      -0.84504376       1.84578734      -1.12391602       0.00000000
Si       1.71688457      -0.44849628      -1.52099042       0.00000000
Si       1.37987704       1.02206719       1.63594069       0.00000000
Si      -1.39458691      -1.73359811       0.92214038       0.00000000
H        1.11889495      -0.54773497      -2.92139977       0.00000000
H       -2.00811719      -1.16229151      -2.17976632       0.00000000
Si       2.19763505      -2.47669904      -0.46128900       0.00000000
Si       0.32891139      -3.35499069       0.83146387       0.00000000
Si       2.65052963       2.50185080       0.31150355       0.00000000
Si      -2.56541438       2.60123609       0.25577893       0.00000000
