10
Lattice="16.290000149 0.0 0.0 0.0 16.290000149 0.0 0.0 0.0 29.1751946751" Properties=species:S:1:pos:R:3:initial_magmoms:R:1 pbc="T T T"
Si       1.29746593       1.28405894       1.50466982       0.00000000
Si      -1.33643161      -1.36523266       1.40601098       0.00000000
Si       1.48154293      -1.29813415      -1.34025009       0.00000000
Si      -1.36008469       1.38669408      -1.39302802       0.00000000
Si      -0.00431685      -2.55381623      -2.70947115       0.00000000
Si      -2.61213410       2.72984532       0.08832965       0.00000000
Si       2.69734709      -2.71459853       0.10651455       0.00000000
Si       0.16290000       2.78361861      -2.64554830       0.00000000
Si       2.37115613       2.38327557      -1.87059678       0.00000000
Si       2.28763730       3.07330368       0.35714815       0.00000000
