10
Lattice="16.290000149 0.0 0.0 0.0 16.290000149 0.0 0.0 0.0 29.1751946751" Properties=species:S:1:pos:R:3:initial_magmoms:R:1 pbc="T T T"
Si      -1.36016614      -1.36244674       1.34401369       0.00000000
Si       1.35418771       1.35358498       1.36011840       0.00000000
Si       1.36967950      -1.37872045      -1.32216147       0.00000000
Si      -1.38339568       1.33840270      -1.34996543       0.00000000
Si      -0.01959687       2.69941592      -2.68000421       0.00000000
Si       2.71520093      -0.04181643       2.66427878       0.00000000
Si      -0.00373041      -2.70508484      -2.68554749       0.00000000
Si      -2.73533538       0.00169416       2.67618226       0.00000000
Si       2.72881937       2.69584841       0.01750512       0.00000000
Si      -0.01023012      -2.73978255       2.68630605       0.00000000
