10
Lattice="16.290000149 0.0 0.0 0.0 16.290000149 0.0 0.0 0.0 29.1751946751" Properties=species:S:1:pos:R:3:initial_magmoms:R:1 pbc="T T T"
Si       1.34407162      -1.33077898      -1.38649278       0.00000000
Si      -1.36265851       1.33991767      -1.36370695       0.00000000
Si      -1.35187453      -1.39116601       1.32741301       0.00000000
Si       1.37090125       1.34799751       1.35483769       0.00000000
Si      -2.73210995      -0.04502556       2.64826160       0.00000000
Si      -2.69773805      -0.06442695      -2.70211901       0.00000000
Si       2.68920209      -2.71153568      -0.03206354       0.00000000
Si      -2.71849151       2.69263928       0.00148793       0.00000000
Si       0.02415807       2.71254566       2.70316931       0.00000000
Si      -0.00702099       2.71047683      -2.70967538       0.00000000
