10
Lattice="16.290000149 0.0 0.0 0.0 16.290000149 0.0 0.0 0.0 29.1751946751" Properties=species:S:1:pos:R:3:initial_magmoms:R:1 pbc="T T T"
H        0.52657425       0.25777296      -1.38421711       0.00000000
Si       1.69235183      -0.93173914       1.30205976       0.00000000
Si      -0.85079413       1.87496273       1.11294615       0.00000000
Si      -1.80322157      -1.58780260      -0.13335981       0.00000000
H        1.81527617       1.99761014      -0.94775620       0.00000000
H       -0.12056229      -0.68515741      -2.99258724       0.00000000
H       -1.05435397       1.17586108      -2.67726174       0.00000000
Si      -2.16676550       0.50989329       2.59352893       0.00000000
Si       2.66043395      -2.38593116      -0.21222037       0.00000000
Si       0.42169923      -2.41152275       2.62649690       0.00000000
