10
Lattice="16.290000149 0.0 0.0 0.0 16.290000149 0.0 0.0 0.0 29.1751946751" Properties=species:S:1:pos:R:3:initial_magmoms:R:1 pbc="T T T"
Si       1.33517728       1.36336061      -1.36962951       0.00000000
Si      -1.36143676      -1.34279937      -1.37776939       0.00000000
Si      -1.42586371       1.36557605       1.29453256       0.00000000
Si       1.40253643      -1.34043732       1.35979747       0.00000000
Si       0.06051735      -2.71943471       2.67221443       0.00000000
Si       2.70541064      -2.68708277      -0.07226696       0.00000000
Si       2.69496875       2.70853995      -0.00128371       0.00000000
Si      -0.13284495       2.79621273       2.61418497       0.00000000
Si      -2.72561024      -2.69309378      -0.02888344       0.00000000
Si       2.62604576       0.09165731       2.79244541       0.00000000
