10
Lattice="16.290000149 0.0 0.0 0.0 16.290000149 0.0 0.0 0.0 29.1751946751" Properties=species:S:1:pos:R:3:initial_magmoms:R:1 pbc="T T T"
H        1.21754719      -1.95577742       0.22289849       0.00000000
H       -1.98687503      -0.61501267      -1.08400436       0.00000000
Si       1.87799267       0.71078158       1.27367230       0.00000000
Si      -0.76450600      -1.87071104       1.27944899       0.00000000
Si       0.62507989      -0.32936751      -2.33033950       0.00000000
Si      -1.77582179       1.54582327       0.63555244       0.00000000
H       -2.63863793      -0.19409535      -1.12455788       0.00000000
H        2.84017782       0.45783045      -1.20213472       0.00000000
H        2.32720571       1.99656758       0.61332094       0.00000000
H       -0.43878744       2.16481070      -2.22142850       0.00000000
