10
Lattice="16.290000149 0.0 0.0 0.0 16.290000149 0.0 0.0 0.0 29.1751946751" Properties=species:S:1:pos:R:3:initial_magmoms:R:1 pbc="T T T"
Si       0.08351883      -0.69002812      -2.22774493       0.00000000
Si      -0.99017137      -1.78924475       1.14752167       0.00000000
Si       1.83907586       0.88050709       1.18202718       0.00000000
Si      -1.63268155       1.73648144      -0.07966870       0.00000000
H        2.53415387      -0.95073328      -0.74228989       0.00000000
Si       0.55094410       2.32844375       2.50997701       0.00000000
Si      -2.30715272      -0.46711575       2.54715496       0.00000000
Si      -2.12473730      -0.28968507      -3.00269645       0.00000000
Si      -2.07042644       1.99933688      -2.35754537       0.00000000
Si       2.02167047       0.33401016      -3.13733997       0.00000000
