10
Lattice="16.290000149 0.0 0.0 0.0 16.290000149 0.0 0.0 0.0 29.1751946751" Properties=species:S:1:pos:R:3:initial_magmoms:R:1 pbc="T T T"
Si       0.73396225      -1.32579424       1.79016077       0.00000000
Si      -1.76116079       0.96023035       1.26273160       0.00000000
Si       1.38953701       1.82632079      -0.74939405       0.00000000
Si       0.10902897      -1.72882514      -1.80492342       0.00000000
H       -2.14869989      -0.24840621      -1.30748635       0.00000000
Si       2.88186393       0.56439964      -2.03415292       0.00000000
Si       2.73241946      -2.20668089       0.81579679       0.00000000
Si      -0.78768667      -3.17327574       1.71827309       0.00000000
Si      -2.79106347       0.59100121      -2.38997360       0.00000000
Si       1.54300510      -3.35506139      -0.87677295       0.00000000
