10
Lattice="16.290000149 0.0 0.0 0.0 16.290000149 0.0 0.0 0.0 29.1751946751" Properties=species:S:1:pos:R:3:initial_magmoms:R:1 pbc="T T T"
Si      -0.72371584       2.19156540       0.41020324       0.00000000
Si       1.90382861       0.54396546       1.28300836       0.00000000
Si      -1.61332903      -1.48984432       0.94054993       0.00000000
Si       0.73756234       0.34117288      -2.25833512       0.00000000
H        1.45551151      -2.17436641      -1.25809274       0.00000000
H        1.72691921       1.93086023       1.89565827       0.00000000
Si       2.54729990       1.66924283      -1.65755951       0.00000000
Si       1.21443580       3.21560368      -0.49939181       0.00000000
H       -0.43311852      -2.62287899      -2.48937349       0.00000000
Si      -0.39752487      -2.90630870       2.38731457       0.00000000
