10
Lattice="16.290000149 0.0 0.0 0.0 16.290000149 0.0 0.0 0.0 29.1751946751" Properties=species:S:1:pos:R:3:initial_magmoms:R:1 pbc="T T T"
Si       0.84504376      -1.84578734       1.12391602       0.00000000
Si      -1.72037063       0.75544876       1.37969496       0.00000000
Si      -1.05928984      -0.07082892      -2.11030018       0.00000000
Si       1.80322157       1.58780260       0.13335981       0.00000000
H        2.32979582       1.84557557      -1.25085730       0.00000000
H       -1.16307343      -3.00807885      -1.05585030       0.00000000
H        1.68265928       0.90264520      -2.85922743       0.00000000
Si      -0.36354393       2.09769590       2.72688875       0.00000000
Si       2.56192832      -2.29428362      -0.39707440       0.00000000
Si      -0.59709367       2.13561902      -2.74483149       0.00000000
