10
Lattice="16.290000149 0.0 0.0 0.0 16.290000149 0.0 0.0 0.0 29.1751946751" Properties=species:S:1:pos:R:3:initial_magmoms:R:1 pbc="T T T"
Si      -1.34315938      -1.32719518      -1.40767397       0.00000000
Si      -1.38828268       1.34768800       1.35425419       0.00000000
Si       1.35570268       1.34609158      -1.39474936       0.00000000
Si       1.39012329      -1.35721765       1.35008213       0.00000000
Si      -2.68415219      -2.67517640      -0.03533116       0.00000000
Si       2.66013585      -2.71577108      -0.07582633       0.00000000
Si       0.02028105       2.71036280       2.67244783       0.00000000
Si      -2.71598285       2.66572820      -0.08831331       0.00000000
Si       2.74964125       0.05046642       2.66442465       0.00000000
Si      -2.74069478      -0.03543075       2.70955868       0.00000000
