10
Lattice="16.290000149 0.0 0.0 0.0 16.290000149 0.0 0.0 0.0 29.1751946751" Properties=species:S:1:pos:R:3:initial_magmoms:R:1 pbc="T T T"
Si       1.35018037       1.34298019       1.31145418       0.00000000
Si      -1.30912957       1.42516324      -1.30016338       0.00000000
Si       1.43879797      -1.33480261      -1.28000332       0.00000000
Si      -1.37147140      -1.25665948       1.42975959       0.00000000
Si      -2.66074346       0.04051323      -2.62217897       0.00000000
Si       0.07201809      -2.69097770      -2.61135497       0.00000000
Si      -0.01720224      -2.61135218       2.73680831       0.00000000
Si      -2.68265351      -2.68395671       0.10672286       0.00000000
Si      -2.60885981       2.78071932       0.11579635       0.00000000
Si       0.06727770       2.75807622      -2.65252117       0.00000000
