10
Lattice="16.290000149 0.0 0.0 0.0 16.290000149 0.0 0.0 0.0 29.1751946751" Properties=species:S:1:pos:R:3:initial_magmoms:R:1 pbc="T T T"
Si      -1.37119447       1.35764119       1.33152671       0.00000000
Si      -1.37318185      -1.34752510      -1.34299256       0.00000000
Si       1.35000118       1.36472734      -1.35623810       0.00000000
Si       1.36858807      -1.34488612       1.36376530       0.00000000
Si      -0.00441459       2.71381628       2.66287837       0.00000000
Si      -0.01327635      -2.70497570      -2.68225070       0.00000000
Si       2.71891505      -2.69432367      -0.00916101       0.00000000
Si       2.72096759       0.01897785      -2.69459180       0.00000000
Si      -2.70309746       0.02231730      -2.71539372       0.00000000
Si      -2.71762814      -2.70289873       0.02217315       0.00000000
