10
Lattice="16.290000149 0.0 0.0 0.0 16.290000149 0.0 0.0 0.0 29.1751946751" Properties=species:S:1:pos:R:3:initial_magmoms:R:1 pbc="T T T"
Si       1.53290530       0.72218458       1.61184198       0.00000000
Si      -1.21782412      -1.31747005       1.50018851       0.00000000
Si       0.61708150      -1.07585677      -2.04681496       0.00000000
Si      -1.48535479       1.86797432      -0.35430356       0.00000000
H        1.87514192      -1.84659858       0.71674701       0.00000000
H        3.09259137       0.32242797      -1.00391845       0.00000000
Si      -1.87804154       1.21016782      -2.57424413       0.00000000
Si       3.15170778       1.40322061       0.05131917       0.00000000
Si       0.30538863       2.57460194       2.27776580       0.00000000
Si      -2.55068822       0.22889079       2.65835621       0.00000000
