10
Lattice="16.290000149 0.0 0.0 0.0 16.290000149 0.0 0.0 0.0 29.1751946751" Properties=species:S:1:pos:R:3:initial_magmoms:R:1 pbc="T T T"
Si       1.34677250       1.34781832      -1.36808323       0.00000000
Si       1.35086129      -1.35909100       1.35965160       0.00000000
Si      -1.33052748       1.34938216       1.39072318       0.00000000
Si      -1.36435593      -1.33007851      -1.37867382       0.00000000
Si       2.67755149       2.69327459       0.04627186       0.00000000
Si      -2.70539761      -2.68319108       0.00633102       0.00000000
Si      -2.69901193       2.70624143       0.05038556       0.00000000
Si       2.69112106       0.00338832       2.72481731       0.00000000
Si       2.69859817      -0.02135619      -2.72639277       0.00000000
Si      -2.67856798      -0.00441459       2.74766148       0.00000000
