10
Lattice="16.290000149 0.0 0.0 0.0 16.290000149 0.0 0.0 0.0 29.1751946751" Properties=species:S:1:pos:R:3:initial_magmoms:R:1 pbc="T T T"
Si      -1.34636851       1.34488612      -1.36496148       0.00000000
Si      -1.35563752      -1.37055916       1.34596843       0.00000000
Si       1.35747829       1.34817670       1.36723715       0.00000000
Si       1.34369695      -1.30344436      -1.42334105       0.00000000
Si      -2.76719862      -0.11510514      -2.59057932       0.00000000
Si       0.11308518       2.78234880      -2.57899677       0.00000000
Si      -2.70026300       2.67398723       0.03603137       0.00000000
Si       2.69213429      -2.68814324      -0.06182224       0.00000000
Si       0.00702099      -2.71047683       2.70967538       0.00000000
Si      -2.71147052      -0.01783755       2.71116332       0.00000000
