10
Lattice="16.290000149 0.0 0.0 0.0 16.290000149 0.0 0.0 0.0 29.1751946751" Properties=species:S:1:pos:R:3:initial_magmoms:R:1 pbc="T T T"
Si      -1.33649677      -1.44705700       1.25733419       0.00000000
Si       1.34674318      -1.36454815      -1.34833162       0.00000000
Si      -1.38590434       1.34397388      -1.34497647       0.00000000
Si       1.25532370       1.36992385       1.45260377       0.00000000
Si      -2.69720048      -0.07729605       2.52035754       0.00000000
Si       2.63871938       2.69576696       0.06748223       0.00000000
Si      -0.02472822       2.70697448      -2.68601430       0.00000000
Si       2.69478368      -0.01075140      -2.70526993       0.00000000
Si       2.68933241      -2.72251514       0.02051016       0.00000000
Si      -0.02415807      -2.71254566      -2.70316931       0.00000000
