10
Lattice="16.290000149 0.0 0.0 0.0 16.290000149 0.0 0.0 0.0 29.1751946751" Properties=species:S:1:pos:R:3:initial_magmoms:R:1 pbc="T T T"
Si       1.24652710      -0.24262326      -1.94665651       0.00000000
Si      -0.34129179       2.11157498       0.94828135       0.00000000
Si       1.22376997      -1.32089095       1.51308395       0.00000000
Si      -2.06431769      -0.70147999      -0.88946416       0.00000000
H        2.56080431      -0.70190353      -1.34389699       0.00000000
H       -2.53464257       0.29372499       1.73070172       0.00000000
H        0.36095382      -3.06080958      -0.24702637       0.00000000
H       -1.24594066       2.03356217       2.16716264       0.00000000
H       -3.18177912      -0.64920538       0.12233159       0.00000000
Si       0.27245025      -2.23980986      -2.82234998       0.00000000
