10
Lattice="16.290000149 0.0 0.0 0.0 16.290000149 0.0 0.0 0.0 29.1751946751" Properties=species:S:1:pos:R:3:initial_magmoms:R:1 pbc="T T T"
Si      -1.41351589      -1.32783049       1.23831196       0.00000000
Si       1.36070371      -1.36976095      -1.26302335       0.00000000
Si       1.23300640       1.13679766       1.62307443       0.00000000
Si      -1.39484755       1.45121095      -1.19259443       0.00000000
Si      -0.36533583       1.06580584       3.41343943       0.00000000
Si       2.69720048       0.07729605      -2.52035754       0.00000000
Si      -2.49456917       0.09065385       2.73736264       0.00000000
Si      -0.05906754      -2.68027517      -2.57526526       0.00000000
Si       2.52744239       2.72881938       0.34893533       0.00000000
Si      -0.11979666      -2.62008362       2.66745887       0.00000000
