10
Lattice="16.28999089631971 0.0 0.0 0.0 16.28999089631971 0.0 0.0 0.0 34.31052061344573" Properties=species:S:1:pos:R:3:initial_magmoms:R:1 pbc="T T T"
Si      -1.31621571       1.37484342       1.34381003       0.00000000
Si       1.40750487      -1.36824597       1.32268846       0.00000000
Si       1.17476964       1.59886350      -1.32009253       0.00000000
Si      -1.76370201      -0.77276502      -1.48260101       0.00000000
Si      -2.53500256       2.60291394      -0.26132623       0.00000000
Si      -2.65200223      -2.65136529      -0.03232053       0.00000000
Si      -2.67178643       0.01563840       2.69928565       0.00000000
Si      -0.70328817       3.38046822      -1.58721384       0.00000000
Si       0.04761567      -2.70323428       2.69808478       0.00000000
Si       0.04496040       2.72758131       2.69973169       0.00000000
