10
Lattice="16.28999089631971 0.0 0.0 0.0 16.28999089631971 0.0 0.0 0.0 34.31052061344573" Properties=species:S:1:pos:R:3:initial_magmoms:R:1 pbc="T T T"
Si      -1.35356868       1.35619082      -1.35907479       0.00000000
Si      -1.35614250      -1.35809852       1.35749651       0.00000000
Si       1.35690813      -1.35319523      -1.36181963       0.00000000
Si       1.35876519       1.35710795       1.35739358       0.00000000
Si       0.00632052       2.69117913      -2.73447111       0.00000000
Si      -2.71357191      -0.00026038       2.71458129       0.00000000
Si       0.00115659      -2.71427360       2.71458129       0.00000000
Si       0.00123804       2.71465302       2.71434111       0.00000000
Si      -2.71432125      -2.71508810      -0.00003431       0.00000000
Si       2.71518462       0.00010931       2.71513026       0.00000000
