10
Lattice="16.28999089631971 0.0 0.0 0.0 16.28999089631971 0.0 0.0 0.0 34.31052061344573" Properties=species:S:1:pos:R:3:initial_magmoms:R:1 pbc="T T T"
Si      -1.34713413      -1.35557235      -1.38810151       0.00000000
Si       1.37419182       1.36140417      -1.38511649       0.00000000
Si       1.12187601      -1.68541227       1.30205067       0.00000000
Si      -1.40248755       1.37678193       1.39338533       0.00000000
Si      -2.69097768      -2.70780362      -0.02449773       0.00000000
Si       2.70964602       2.70936909      -0.00960695       0.00000000
Si      -2.71007445       2.72075580      -0.01797872       0.00000000
Si      -0.27212445       0.37346454       3.81670445       0.00000000
Si      -2.70578366       0.00210141      -2.74096609       0.00000000
Si       0.01026270      -2.70985290      -2.74240713       0.00000000
