10
Lattice="16.28999089631971 0.0 0.0 0.0 16.28999089631971 0.0 0.0 0.0 34.31052061344573" Properties=species:S:1:pos:R:3:initial_magmoms:R:1 pbc="T T T"
Si      -2.14420383      -0.78807762       0.59696908       0.00000000
Si       1.12562271       0.75885336       1.93823670       0.00000000
Si       0.48746196       1.83032811      -1.58168157       0.00000000
Si       1.45836225      -2.05118304      -0.03966298       0.00000000
Si      -2.46122352      -1.19806434      -1.68324077       0.00000000
Si       1.86531903       0.49910931      -2.99431512       0.00000000
Si       3.10922343      -0.99352710      -1.56576148       0.00000000
Si      -0.85592547      -2.23951825      -2.99939308       0.00000000
Si       1.02183912       3.09472533       2.05307408       0.00000000
Si       1.26706878       3.63223017      -0.22878268       0.00000000
