10
Lattice="16.28999089631971 0.0 0.0 0.0 16.28999089631971 0.0 0.0 0.0 34.31052061344573" Properties=species:S:1:pos:R:3:initial_magmoms:R:1 pbc="T T T"
Si       2.10233853      -0.93746018      -0.01139110       0.00000000
Si      -0.91896777      -1.82718318      -1.07532663       0.00000000
Si      -0.49327749       0.28125500       2.26175078       0.00000000
Si      -1.57931550       1.65194447      -0.67224641       0.00000000
Si      -1.75120758       2.14527083       1.66937931       0.00000000
Si       0.32703804      -1.89219657      -3.16226521       0.00000000
Si      -3.01381290       0.51048788      -2.10749060       0.00000000
Si      -1.92730248      -1.47692910       2.84427513       0.00000000
Si       1.55110122       0.86893304       3.30022789       0.00000000
Si       2.39001993      -2.05661154      -2.02826756       0.00000000
