10
Lattice="16.28999089631971 0.0 0.0 0.0 16.28999089631971 0.0 0.0 0.0 34.31052061344573" Properties=species:S:1:pos:R:3:initial_magmoms:R:1 pbc="T T T"
Si      -1.43449740      -1.14145659      -1.43524419       0.00000000
Si       0.43733763       1.82658141      -1.39389999       0.00000000
Si       1.57931550      -1.65194447       0.67224641       0.00000000
Si      -0.17189208       0.49332636       2.34162572       0.00000000
Si       0.01166364       3.22947621       0.37000486       0.00000000
Si       1.08603801      -1.37068947       2.93399719       0.00000000
Si       1.16219376       2.41147386       2.26380942       0.00000000
Si       0.66034773      -3.47912765      -0.40308022       0.00000000
Si      -0.31001499      -0.90964989      -3.50132196       0.00000000
Si      -1.68583581      -3.20834384      -0.33610605       0.00000000
