10
Lattice="16.28999089631971 0.0 0.0 0.0 16.28999089631971 0.0 0.0 0.0 34.31052061344573" Properties=species:S:1:pos:R:3:initial_magmoms:R:1 pbc="T T T"
Si      -1.23787140      -1.24813980      -1.53248026       0.00000000
Si      -1.76615595       0.34112889       1.52211848       0.00000000
Si       1.31518618       1.39075875      -1.40721248       0.00000000
Si       2.44554928       0.38744136       1.01610664       0.00000000
Si       1.41657514       0.34375158       3.08894359       0.00000000
Si      -2.15783271      -2.91004234      -0.21811210       0.00000000
Si       2.64220216       2.65450437       0.05747015       0.00000000
Si      -3.37818177      -1.31786100       1.10946561       0.00000000
Si      -0.93294622       0.34036326       3.67791831       0.00000000
Si       2.71767373       0.01397682      -2.80059781       0.00000000
