10
Lattice="16.28999089631971 0.0 0.0 0.0 16.28999089631971 0.0 0.0 0.0 34.31052061344573" Properties=species:S:1:pos:R:3:initial_magmoms:R:1 pbc="T T T"
Si      -1.33545420      -1.34796492      -1.37550954       0.00000000
Si       1.37148768       1.36656810      -1.37369108       0.00000000
Si       1.36091547      -1.36638891       1.41321682       0.00000000
Si      -1.33770222       1.29671658       1.50290457       0.00000000
Si       2.14052229       0.43551315       2.76611572       0.00000000
Si       0.64685961       2.35167327       2.61662470       0.00000000
Si      -2.70964602      -2.70936909       0.00960695       0.00000000
Si      -2.69316054       2.72710890       0.02587015       0.00000000
Si      -2.70076797       0.00770517      -2.73125621       0.00000000
Si       2.73877254      -2.69760771       0.00058328       0.00000000
