10
Lattice="16.28999089631971 0.0 0.0 0.0 16.28999089631971 0.0 0.0 0.0 34.31052061344573" Properties=species:S:1:pos:R:3:initial_magmoms:R:1 pbc="T T T"
Si       1.33770222      -1.29671658      -1.50290457       0.00000000
Si      -1.44741537      -1.36555812       1.36477034       0.00000000
Si      -1.35545832       1.43039232      -1.47703443       0.00000000
Si       1.98456183       1.05495669       1.11372012       0.00000000
Si       2.69861769      -2.66310549      -0.08968775       0.00000000
Si       3.47822451      -0.86120343       1.26321114       0.00000000
Si      -2.18290887       0.00878031       3.13756162       0.00000000
Si      -2.77443135      -2.62930374      -0.09991229       0.00000000
Si       0.00224802      -2.64468150      -2.87841411       0.00000000
Si       2.70918990       0.06985152      -2.87659566       0.00000000
