10
Lattice="16.28999089631971 0.0 0.0 0.0 16.28999089631971 0.0 0.0 0.0 34.31052061344573" Properties=species:S:1:pos:R:3:initial_magmoms:R:1 pbc="T T T"
Si      -0.42567399       1.40289480       1.76390485       0.00000000
Si       2.23746408       0.46006218      -0.44270889       0.00000000
Si      -0.43733763      -1.82658141       1.39389999       0.00000000
Si      -1.47121506       1.22419350      -1.40107089       0.00000000
Si      -2.04467193      -0.68002605      -2.65258214       0.00000000
Si      -1.87183503      -2.96803800      -0.04134420       0.00000000
Si      -0.74735262      -2.73623130      -2.10742197       0.00000000
Si      -2.82317103       1.35663120       1.76177760       0.00000000
Si      -0.02202408       2.90686905      -2.16677921       0.00000000
Si       3.07652940      -1.43980794      -1.52949524       0.00000000
