10
Lattice="16.28999089631971 0.0 0.0 0.0 16.28999089631971 0.0 0.0 0.0 34.31052061344573" Properties=species:S:1:pos:R:3:initial_magmoms:R:1 pbc="T T T"
Si       0.42567399      -1.40289480      -1.76390485       0.00000000
Si       0.82262871       2.16476181      -0.30265327       0.00000000
Si       1.15053012      -0.81800235       1.89380455       0.00000000
Si      -2.39749704      -0.04626360      -0.00212725       0.00000000
Si      -0.16659783       2.74631481       1.71048334       0.00000000
Si      -0.01166364      -3.22947621      -0.37000486       0.00000000
Si      -1.04554107      -0.17870130      -3.16497574       0.00000000
Si      -0.18355572      -2.73614985       1.97162086       0.00000000
Si       0.49780611       1.00683603       3.21723069       0.00000000
Si       2.66313807      -0.94283262      -2.20661375       0.00000000
