10
Lattice="16.28999089631971 0.0 0.0 0.0 16.28999089631971 0.0 0.0 0.0 34.31052061344573" Properties=species:S:1:pos:R:3:initial_magmoms:R:1 pbc="T T T"
Si      -1.85231961       1.43368290       0.06937591       0.00000000
Si       1.09954242       0.20268018       2.08395357       0.00000000
Si       1.18850211       0.69097293      -1.92663974       0.00000000
Si      -0.29958939      -2.35341630       0.19800613       0.00000000
Si       1.38087072      -2.14316127       2.19933991       0.00000000
Si       0.13756905       2.75514399      -2.02541978       0.00000000
Si      -2.64039723       1.44199080      -2.19038486       0.00000000
Si       2.94332607       1.54655631       1.71995305       0.00000000
Si       0.36070947      -0.57257721      -3.73250638       0.00000000
Si      -3.39683967       0.49762692       1.63976932       0.00000000
