10
Lattice="16.28999089631971 0.0 0.0 0.0 16.28999089631971 0.0 0.0 0.0 34.31052061344573" Properties=species:S:1:pos:R:3:initial_magmoms:R:1 pbc="T T T"
Si       0.90644076       1.84333568       1.24790864       0.00000000
Si      -2.14015414      -0.39700831      -1.25878508       0.00000000
Si       1.25501418       0.07128341      -2.19906543       0.00000000
Si      -0.62622018      -1.85694501       1.63294152       0.00000000
Si       2.34911574       2.29434061      -1.60453239       0.00000000
Si      -0.21804165       1.61152898       3.31398642       0.00000000
Si      -1.40002776      -2.22410532      -2.61638452       0.00000000
Si       3.23450982       1.38521200       1.23854187       0.00000000
Si      -2.90718670      -1.31753424       2.04041349       0.00000000
Si       3.27088539      -2.14436577       0.02363996       0.00000000
