10
Lattice="16.28999089631971 0.0 0.0 0.0 16.28999089631971 0.0 0.0 0.0 34.31052061344573" Properties=species:S:1:pos:R:3:initial_magmoms:R:1 pbc="T T T"
Si       0.35650665      -1.86453711       1.32696013       0.00000000
Si       1.25247294       1.90320957       0.51349154       0.00000000
Si      -2.14930260       0.54317376       0.88435416       0.00000000
Si       1.26708507      -0.53268300      -2.16111797       0.00000000
Si      -0.87019551      -3.49829379       0.13909493       0.00000000
Si      -1.35870003       1.54233720       2.96717548       0.00000000
Si      -2.94664923       1.84366962      -0.99150598       0.00000000
Si       0.88254333       3.33930339      -1.36854450       0.00000000
Si       0.66984480       2.67876018       2.61761970       0.00000000
Si       2.85280254      -2.24867160      -1.14158028       0.00000000
