10
Lattice="16.28999089631971 0.0 0.0 0.0 16.28999089631971 0.0 0.0 0.0 34.31052061344573" Properties=species:S:1:pos:R:3:initial_magmoms:R:1 pbc="T T T"
Si      -0.03865291      -2.31514620       0.03437916       0.00000000
Si       1.92638209       0.48917241       1.23161114       0.00000000
Si       0.11616073       0.72545886      -2.23437097       0.00000000
Si      -1.84397817       0.99349452       1.15746606       0.00000000
Si       0.69893059       3.47350041      -0.09188363       0.00000000
Si      -0.90617916      -2.72250535       2.18372862       0.00000000
Si      -1.55396730       3.28911390       0.55802662       0.00000000
Si       1.51427767       2.61749349      -2.11991101       0.00000000
Si       3.72821899      -0.07239276      -0.14616290       0.00000000
Si      -1.63245252      -3.02707622      -1.50331630       0.00000000
