10
Lattice="16.28999089631971 0.0 0.0 0.0 16.28999089631971 0.0 0.0 0.0 34.31052061344573" Properties=species:S:1:pos:R:3:initial_magmoms:R:1 pbc="T T T"
Si      -2.09629494      -0.49767579       0.94590727       0.00000000
Si      -0.44445636      -1.46166912      -1.79516175       0.00000000
Si       0.26459847       2.29221477      -0.57315757       0.00000000
Si       1.51998732      -0.45040221       1.81379238       0.00000000
Si       2.64961737       2.30470920      -0.65721839       0.00000000
Si      -3.61861173       0.69338385      -0.33459638       0.00000000
Si      -2.43434502      -2.78313021       0.29963394       0.00000000
Si       0.43303707      -0.46257084      -3.67953091       0.00000000
Si       0.01151703       0.14292846       3.78915308       0.00000000
Si      -2.23462962       0.61561539       3.03627691       0.00000000
