10
Lattice="16.28999089631971 0.0 0.0 0.0 16.28999089631971 0.0 0.0 0.0 34.31052061344573" Properties=species:S:1:pos:R:3:initial_magmoms:R:1 pbc="T T T"
Si       0.13833468      -1.11329118      -2.09036964       0.00000000
Si       2.24614665      -0.47268693       0.75287617       0.00000000
Si      -0.37566369       2.30461146      -0.73757367       0.00000000
Si      -1.73447775      -0.85906944       1.53995996       0.00000000
Si      -0.11143989      -0.77377500       3.41918253       0.00000000
Si      -1.38398211       0.07776846      -3.37087329       0.00000000
Si       2.92558626       1.75342302       1.50633563       0.00000000
Si      -3.52715967       0.73581930       1.17390081       0.00000000
Si       2.23462962      -0.61561539      -3.03627691       0.00000000
Si       1.65569931       2.94897870      -1.77907011       0.00000000
