10
Lattice="16.28999089631971 0.0 0.0 0.0 16.28999089631971 0.0 0.0 0.0 34.31052061344573" Properties=species:S:1:pos:R:3:initial_magmoms:R:1 pbc="T T T"
Si      -1.20205539       1.39990300      -1.53899926       0.00000000
Si       1.11223233       1.58823820       1.42073083       0.00000000
Si      -1.74355128      -0.95242743       1.37938663       0.00000000
Si       1.49219658      -1.30075650      -1.51868742       0.00000000
Si      -2.80735344       2.44135691      -0.22284696       0.00000000
Si      -2.73295701      -2.63821437       0.01513095       0.00000000
Si       2.76309351       2.64589415      -0.10536767       0.00000000
Si      -2.55826305       0.05675436      -2.91310207       0.00000000
Si       2.77882965      -2.71728603      -0.05921999       0.00000000
Si      -3.58443531       0.62828642       1.46282986       0.00000000
