10
Lattice="16.28999089631971 0.0 0.0 0.0 16.28999089631971 0.0 0.0 0.0 34.31052061344573" Properties=species:S:1:pos:R:3:initial_magmoms:R:1 pbc="T T T"
Si      -2.37584763       0.13747131      -0.09476571       0.00000000
Si       1.42847010       1.89793161      -0.30800572       0.00000000
Si       0.79734663      -1.30049586       1.87586014       0.00000000
Si      -1.59829335       0.04199562      -2.65323404       0.00000000
Si      -2.46863547       2.18535237       1.30129584       0.00000000
Si       2.94664923      -1.84366962       0.99150598       0.00000000
Si       1.25348292       2.53286694      -2.61415434       0.00000000
Si       1.28039400       3.25114191       1.92756613       0.00000000
Si      -0.56757618      -3.12017031       2.50312543       0.00000000
Si       0.26407719       0.84708000      -3.97841002       0.00000000
