10
Lattice="16.28999089631971 0.0 0.0 0.0 16.28999089631971 0.0 0.0 0.0 34.31052061344573" Properties=species:S:1:pos:R:3:initial_magmoms:R:1 pbc="T T T"
Si      -1.42847010      -1.89793161       0.30800572       0.00000000
Si      -0.17498718       0.63493533      -2.30614862       0.00000000
Si       2.40072246      -0.40229784      -0.06903281       0.00000000
Si      -0.14807610       1.35321030       2.23557184       0.00000000
Si      -2.01587121       2.21564918      -2.22270539       0.00000000
Si      -0.03637557       3.52957778       1.21490190       0.00000000
Si       2.77065207      -1.83839166       1.81300323       0.00000000
Si      -3.27088539       2.14436577      -0.02363996       0.00000000
Si      -0.63112347      -3.19842747       2.18386586       0.00000000
Si       3.50963163       1.79260456      -0.14890774       0.00000000
