10
Lattice="16.28999089631971 0.0 0.0 0.0 16.28999089631971 0.0 0.0 0.0 34.31052061344573" Properties=species:S:1:pos:R:3:initial_magmoms:R:1 pbc="T T T"
Si       1.53453429      -1.16217747       1.34005303       0.00000000
Si      -1.32157512      -1.18227933      -1.55665002       0.00000000
Si      -1.19115738       1.57032342       1.33242923       0.00000000
Si      -2.55103029      -2.61470790      -0.07241583       0.00000000
Si       0.16632090      -2.50922526       2.72435979       0.00000000
Si      -2.55337605       0.21317094       2.71880148       0.00000000
Si       0.96493815      -0.59759865      -3.59823006       0.00000000
Si      -2.52607401       0.45502857      -2.87204749       0.00000000
Si       0.11368791      -2.67260419      -2.88920276       0.00000000
Si      -2.47236588       3.06336708      -0.10296593       0.00000000
