10
Lattice="16.28999089631971 0.0 0.0 0.0 16.28999089631971 0.0 0.0 0.0 34.31052061344573" Properties=species:S:1:pos:R:3:initial_magmoms:R:1 pbc="T T T"
Si       1.78916328       1.46680210       0.31795577       0.00000000
Si       0.54841914      -0.71839307      -2.17806738       0.00000000
Si      -1.82796606       1.47059767      -0.28141505       0.00000000
Si      -0.69326982      -1.98039715       1.15623088       0.00000000
Si      -3.44439018      -0.15232127      -0.18061068       0.00000000
Si      -1.40683698      -0.08243229      -3.30798207       0.00000000
Si       3.63138309      -0.02427373       0.14300633       0.00000000
Si       0.65213757      -3.05628649      -2.00706365       0.00000000
Si      -2.92995198      -1.52282734       1.71950701       0.00000000
Si       1.86087186       2.78739982      -1.71508095       0.00000000
