10
Lattice="16.28999089631971 0.0 0.0 0.0 16.28999089631971 0.0 0.0 0.0 34.31052061344573" Properties=species:S:1:pos:R:3:initial_magmoms:R:1 pbc="T T T"
Si       1.35923760       1.34778573       1.38764175       0.00000000
Si      -1.36221867      -1.35715248       1.38637226       0.00000000
Si       1.19115738      -1.57032342      -1.33242923       0.00000000
Si      -1.28120850       1.49304366      -1.43539516       0.00000000
Si       2.67882534       2.72925918       0.02095002       0.00000000
Si      -2.70814734       2.70332550       0.03349738       0.00000000
Si      -2.71208952      -2.74331745       0.01334337       0.00000000
Si      -0.00301365       2.71080261       2.74530981       0.00000000
Si       2.72569167      -2.73250089       0.00762380       0.00000000
Si       2.71248048      -0.00343719       2.75014759       0.00000000
