10
Lattice="16.28999089631971 0.0 0.0 0.0 16.28999089631971 0.0 0.0 0.0 34.31052061344573" Properties=species:S:1:pos:R:3:initial_magmoms:R:1 pbc="T T T"
Si      -1.35614250       1.35822762      -1.35897186       0.00000000
Si       1.35847197      -1.35762489      -1.35856013       0.00000000
Si       1.35482301       1.37780820       1.36394689       0.00000000
Si      -1.37148768      -1.36656810       1.37369108       0.00000000
Si       2.59129917      -0.11942199       2.72072287       0.00000000
Si      -2.70694188      -2.71453302      -0.00181846       0.00000000
Si      -2.71370223       0.00130320      -2.71660561       0.00000000
Si       0.00097740      -2.71425609      -2.71629681       0.00000000
Si      -2.71546155       2.71559187       0.00370554       0.00000000
Si       2.71925712       2.71244790      -0.00308795       0.00000000
