10
Lattice="16.28999089631971 0.0 0.0 0.0 16.28999089631971 0.0 0.0 0.0 34.31052061344573" Properties=species:S:1:pos:R:3:initial_magmoms:R:1 pbc="T T T"
Si       0.73997325       0.80741385      -2.09839830       0.00000000
Si       1.91166408      -1.11532743       0.86390508       0.00000000
Si      -1.65555270      -1.73397276       0.00936678       0.00000000
Si      -0.78877809       1.92292047       1.24526673       0.00000000
Si      -0.32234652      -0.82059246      -3.33333756       0.00000000
Si       3.37351239       0.80255943       1.31258401       0.00000000
Si      -1.77717384      -2.43212958       2.29757099       0.00000000
Si      -0.88943400       3.75269472      -0.36238792       0.00000000
Si      -3.56138496      -1.07887041      -1.18587519       0.00000000
Si      -3.10542786       1.68528195       1.70379278       0.00000000
