10
Lattice="16.28999089631971 0.0 0.0 0.0 16.28999089631971 0.0 0.0 0.0 34.31052061344573" Properties=species:S:1:pos:R:3:initial_magmoms:R:1 pbc="T T T"
Si      -1.05093306       2.06417106      -0.09878004       0.00000000
Si      -0.82779264      -1.26355014      -1.80586664       0.00000000
Si       2.30544225      -0.44173593      -0.19203609       0.00000000
Si      -1.18850211      -0.69097293       1.92663974       0.00000000
Si       2.14653330      -2.77757532       0.09277570       0.00000000
Si       0.32940009      -3.25487232      -1.36809846       0.00000000
Si      -0.17343963       3.06326934      -1.98314920       0.00000000
Si      -3.17617533      -1.07382051      -1.58717126       0.00000000
Si      -3.04082172       0.74270997       1.99601565       0.00000000
Si       3.19297032       0.10798641       1.92036091       0.00000000
