10
Lattice="16.28999089631971 0.0 0.0 0.0 16.28999089631971 0.0 0.0 0.0 34.31052061344573" Properties=species:S:1:pos:R:3:initial_magmoms:R:1 pbc="T T T"
Si      -1.24255233       1.36967949       1.50171057       0.00000000
Si       1.78080651       1.16657577      -1.12315724       0.00000000
Si       1.44800181      -1.33493292       1.51349281       0.00000000
Si      -1.62267948      -0.86639994      -1.78922058       0.00000000
Si       2.95023303      -0.79579908      -1.75714022       0.00000000
Si      -2.51203203      -2.57114844       0.05714764       0.00000000
Si      -2.69303022       2.63099790       0.05017916       0.00000000
Si       3.17049012      -2.15936982       0.17012538       0.00000000
Si      -2.59470378       0.00586440       2.88193438       0.00000000
Si      -3.62346615       0.60554817      -1.31669582       0.00000000
