10
Lattice="16.28999089631971 0.0 0.0 0.0 16.28999089631971 0.0 0.0 0.0 34.31052061344573" Properties=species:S:1:pos:R:3:initial_magmoms:R:1 pbc="T T T"
Si       0.80125623      -0.08159661      -2.26658857       0.00000000
Si       1.76370201       0.77276502       1.48260101       0.00000000
Si      -1.82377953       1.62927693       0.04398611       0.00000000
Si      -0.88830022      -1.87860027       1.45028048       0.00000000
Si      -0.89315464      -1.69682667      -2.35260509       0.00000000
Si       0.44748630       2.14760844       2.82641104       0.00000000
Si      -2.27558987      -0.57239802       2.82069834       0.00000000
Si      -0.77130055       3.37567896       1.22127478       0.00000000
Si      -2.12524699      -3.07394743      -0.12478743       0.00000000
Si       2.93847165       2.37162852       0.16250848       0.00000000
