10
Lattice="16.28999089631971 0.0 0.0 0.0 16.28999089631971 0.0 0.0 0.0 34.31052061344573" Properties=species:S:1:pos:R:3:initial_magmoms:R:1 pbc="T T T"
Si      -1.35752715      -1.35785295       1.35989824       0.00000000
Si      -1.36086660       1.35925389      -1.35591822       0.00000000
Si       1.35804843       1.35811359       1.36020704       0.00000000
Si       1.36225125      -1.36301688      -1.35766806       0.00000000
Si       2.68183899       0.01845657      -2.72435979       0.00000000
Si      -2.70513369      -0.00747711      -2.71181243       0.00000000
Si       2.71549413      -2.71423980       0.00483779       0.00000000
Si      -2.71528236       2.71446786       0.00325950       0.00000000
Si       2.71611315       2.71445157       0.00535244       0.00000000
Si       0.00058644       2.71440270       2.71698302       0.00000000
