10
Lattice="16.28999089631971 0.0 0.0 0.0 16.28999089631971 0.0 0.0 0.0 34.31052061344573" Properties=species:S:1:pos:R:3:initial_magmoms:R:1 pbc="T T T"
Si       1.35806472       1.35633798      -1.35485460       0.00000000
Si      -1.35746199       1.35628911       1.35677599       0.00000000
Si       1.35775521      -1.35801585       1.35698185       0.00000000
Si      -1.35804843      -1.35811359      -1.36020704       0.00000000
Si       2.70457983       0.00835677      -2.70806228       0.00000000
Si       2.71415835      -0.00097740       2.71372352       0.00000000
Si       0.00043983       2.71269225       2.71543905       0.00000000
Si       2.71394658       2.71428867       0.00020586       0.00000000
Si       0.00148239       2.71132389      -2.71694871       0.00000000
Si      -2.71474479      -0.00120546       2.71464991       0.00000000
