10
Lattice="16.28999089631971 0.0 0.0 0.0 16.28999089631971 0.0 0.0 0.0 34.31052061344573" Properties=species:S:1:pos:R:3:initial_magmoms:R:1 pbc="T T T"
Si      -0.87749343      -0.99909828       1.88436916       0.00000000
Si      -0.97104690      -1.17095778      -1.78881430       0.00000000
Si      -1.40331834       1.88203257      -0.14238874       0.00000000
Si       2.36550348      -0.16377966       0.22518007       0.00000000
Si       3.07516104       1.38461742      -1.35900617       0.00000000
Si       0.17343963      -3.06326934       1.98314920       0.00000000
Si      -0.43303707       0.46257084       3.67953091       0.00000000
Si      -3.39596001       1.33177266       1.05230426       0.00000000
Si      -0.19510533      -3.39763788      -1.90155874       0.00000000
Si      -3.33063711      -1.15432569      -1.80047989       0.00000000
