10
Lattice="16.28999089631971 0.0 0.0 0.0 16.28999089631971 0.0 0.0 0.0 34.31052061344573" Properties=species:S:1:pos:R:3:initial_magmoms:R:1 pbc="T T T"
Si       0.70965756       1.54839708      -1.58418624       0.00000000
Si      -2.36550348       0.16377966      -0.22518007       0.00000000
Si       1.01669148       0.95397498       1.98513921       0.00000000
Si       0.83223981      -2.22646833      -0.53778340       0.00000000
Si       2.99880981       1.75567104      -1.11042631       0.00000000
Si       0.11337840      -3.34122561       1.56593304       0.00000000
Si      -3.24299691      -0.83531862       1.65918908       0.00000000
Si       3.03108030       2.06063613       1.24169843       0.00000000
Si      -0.24395904      -2.99621970      -2.58526486       0.00000000
Si       0.92110176       0.81611271      -3.83197264       0.00000000
