10
Lattice="16.28999089631971 0.0 0.0 0.0 16.28999089631971 0.0 0.0 0.0 34.31052061344573" Properties=species:S:1:pos:R:3:initial_magmoms:R:1 pbc="T T T"
Si      -1.37916027       1.35192339      -1.33222336       0.00000000
Si       1.34578206       1.36925595       1.36013842       0.00000000
Si      -1.36730115      -1.34824185       1.35982962       0.00000000
Si       1.48190130      -1.27917225      -1.37984296       0.00000000
Si       2.69733078      -2.68916949       0.02123822       0.00000000
Si       2.70260874       0.01102833       2.71838976       0.00000000
Si      -0.06960717       2.67483429      -2.74787765       0.00000000
Si      -0.01071882      -2.70322776       2.72192374       0.00000000
Si      -2.73554712      -2.69461035      -0.01957073       0.00000000
Si       2.71200807       2.72655504       0.00269338       0.00000000
