10
Lattice="16.28999089631971 0.0 0.0 0.0 16.28999089631971 0.0 0.0 0.0 34.31052061344573" Properties=species:S:1:pos:R:3:initial_magmoms:R:1 pbc="T T T"
Si       1.33970589      -1.37650500      -1.34208421       0.00000000
Si       1.35252612       1.35353188       1.35333121       0.00000000
Si      -1.36482507       1.24804925      -1.44344441       0.00000000
Si      -1.36645407      -1.35461124       1.34739548       0.00000000
Si      -2.18470077      -0.71547309      -2.72397692       0.00000000
Si      -0.36026964      -2.48688027      -2.80652808       0.00000000
Si      -2.71704168       2.68976312      -0.02525599       0.00000000
Si       2.64925899      -0.05359410      -2.75773850       0.00000000
Si       2.70645318      -0.00032243       2.71007288       0.00000000
Si       2.72073951       2.70057968      -0.03097556       0.00000000
