10
Lattice="16.28999089631971 0.0 0.0 0.0 16.28999089631971 0.0 0.0 0.0 34.31052061344573" Properties=species:S:1:pos:R:3:initial_magmoms:R:1 pbc="T T T"
Si       1.35557072       1.35920502      -1.35547562       0.00000000
Si      -1.35701420       1.35578412       1.36041290       0.00000000
Si       1.35767213      -1.35997065       1.35759944       0.00000000
Si      -1.36750545      -1.36080144      -1.36118832       0.00000000
Si       2.67178643      -0.01563840      -2.69928565       0.00000000
Si       0.01978421      -2.66700369      -2.73160618       0.00000000
Si      -2.70287820       2.70138699       0.00168122       0.00000000
Si       0.00162411       2.71083519       2.71537043       0.00000000
Si       2.71674683       2.71194291       0.00044604       0.00000000
Si      -2.71260333      -0.00236205       2.71609095       0.00000000
