10
Lattice="16.28999089631971 0.0 0.0 0.0 16.28999089631971 0.0 0.0 0.0 34.31052061344573" Properties=species:S:1:pos:R:3:initial_magmoms:R:1 pbc="T T T"
Si      -0.68825250      -0.56604492       2.24885002       0.00000000
Si       2.08606482      -1.27692423      -0.06858677       0.00000000
Si      -2.14462737      -0.48726648      -1.18903176       0.00000000
Si      -0.04900032       2.55880062      -0.13796268       0.00000000
Si       0.26181288       1.68360408      -2.29678184       0.00000000
Si      -3.37530429       1.15025319       0.31582852       0.00000000
Si      -1.42863300       0.42262776      -3.35989392       0.00000000
Si      -3.00537468      -0.28584063       2.19786456       0.00000000
Si       1.18263771      -3.66854058       0.17611600       0.00000000
Si       3.19984470      -1.26873036       2.06099981       0.00000000
