10
Lattice="16.28999089631971 0.0 0.0 0.0 16.28999089631971 0.0 0.0 0.0 34.31052061344573" Properties=species:S:1:pos:R:3:initial_magmoms:R:1 pbc="T T T"
Si      -0.23884398      -1.67615955      -1.58003467       0.00000000
Si       1.42899138       1.79288622      -0.54773346       0.00000000
Si      -2.02072563       1.03906809       0.69660689       0.00000000
Si       0.85317246      -1.35079938       1.79670573       0.00000000
Si       2.06690778      -2.07984204      -1.57838776       0.00000000
Si       0.64902618       3.15425618       1.28314557       0.00000000
Si      -0.80560566      -3.00192120       1.62635390       0.00000000
Si       0.14988429      -0.03417642       3.61475261       0.00000000
Si      -2.16024948       0.27839286       2.97040067       0.00000000
Si      -1.35770634      -3.51034839      -0.61288917       0.00000000
