10
Lattice="16.28999089631971 0.0 0.0 0.0 16.28999089631971 0.0 0.0 0.0 34.31052061344573" Properties=species:S:1:pos:R:3:initial_magmoms:R:1 pbc="T T T"
Si       1.11886236       1.83418884      -0.96714550       0.00000000
Si       0.55210068       0.50842719       2.23924307       0.00000000
Si      -2.38501890      -0.01249443       0.08406082       0.00000000
Si       1.16561466      -1.97708472      -0.81199323       0.00000000
Si      -2.64961737      -2.30470920       0.65721839       0.00000000
Si       3.18000348      -0.87042357      -1.55543401       0.00000000
Si       0.74499057      -1.51179345       3.34867437       0.00000000
Si       1.35770634       3.51034839       0.61288917       0.00000000
Si       3.42461412       1.43050635      -0.96549859       0.00000000
Si       0.05126463       2.55666663      -2.89244713       0.00000000
