10
Lattice="16.28999089631971 0.0 0.0 0.0 16.28999089631971 0.0 0.0 0.0 34.31052061344573" Properties=species:S:1:pos:R:3:initial_magmoms:R:1 pbc="T T T"
Si      -1.35830907      -1.35653890      -1.35660443       0.00000000
Si       1.35736425      -1.35722310       1.35746220       0.00000000
Si      -1.35697329       1.35763955       1.35780530       0.00000000
Si       1.35936792       1.35636893      -1.35831996       0.00000000
Si       2.71362078       0.00220404      -2.71152765       0.00000000
Si      -2.71223613      -0.00268459      -2.71334611       0.00000000
Si      -2.71432125      -2.71499796      -0.00020586       0.00000000
Si      -0.00043983       2.71643732       2.71324318       0.00000000
Si      -2.71466334       2.71528073      -0.00017155       0.00000000
Si       2.71555929      -2.71478619       0.00010293       0.00000000
