10
Lattice="16.28999089631971 0.0 0.0 0.0 16.28999089631971 0.0 0.0 0.0 34.31052061344573" Properties=species:S:1:pos:R:3:initial_magmoms:R:1 pbc="T T T"
Si      -1.35487188       1.35764118      -1.36013842       0.00000000
Si       1.36096434      -1.35931253      -1.35763375       0.00000000
Si       1.36036161       1.36459701       1.36120205       0.00000000
Si      -1.35514881      -1.36212419       1.37238728       0.00000000
Si       0.14216283      -2.65337401       2.72590377       0.00000000
Si      -2.70817992       2.71194291      -0.00470054       0.00000000
Si      -2.70756090      -2.71740432       0.00377416       0.00000000
Si      -2.71140534      -0.00115659      -2.71557629       0.00000000
Si       0.00309510       2.71365336      -2.71574785       0.00000000
Si       2.71625976       2.71412577       0.00147535       0.00000000
