10
Lattice="16.28999089631971 0.0 0.0 0.0 16.28999089631971 0.0 0.0 0.0 34.31052061344573" Properties=species:S:1:pos:R:3:initial_magmoms:R:1 pbc="T T T"
Si       1.82689159      -0.01989661       1.47724029       0.00000000
Si       0.81747685      -2.17194800      -0.39906589       0.00000000
Si       0.56482889       1.20456894      -1.95398524       0.00000000
Si      -2.32582104       0.18299046       0.51880967       0.00000000
Si       0.01858689      -0.51525433      -3.51875172       0.00000000
Si       1.58060145      -2.00691401      -2.54035237       0.00000000
Si      -3.07687149       1.33198932      -1.40409022       0.00000000
Si       2.63255264      -2.27082830       1.10366713       0.00000000
Si      -2.29690629      -0.02938064      -3.23496924       0.00000000
Si       0.59479923      -1.39701737       3.70505795       0.00000000
