10
Lattice="16.28999089631971 0.0 0.0 0.0 16.28999089631971 0.0 0.0 0.0 34.31052061344573" Properties=species:S:1:pos:R:3:initial_magmoms:R:1 pbc="T T T"
Si       1.36544409       1.33063236       1.39781139       0.00000000
Si      -1.36485765      -1.37049399       1.39081204       0.00000000
Si       1.35275418      -1.43817894      -1.42557548       0.00000000
Si      -1.02897414       1.89350073      -1.31622779       0.00000000
Si       2.73005739       2.67123420       0.02385269       0.00000000
Si       2.70081684      -2.73155607       0.03494185       0.00000000
Si      -2.70459612      -2.74382244       0.01381342       0.00000000
Si      -0.00242721       2.69931816       2.75143081       0.00000000
Si       2.71130808      -0.01497051       2.75654308       0.00000000
Si      -2.75146245       2.71793763       0.02713964       0.00000000
