10
Lattice="16.28999089631971 0.0 0.0 0.0 16.28999089631971 0.0 0.0 0.0 34.31052061344573" Properties=species:S:1:pos:R:3:initial_magmoms:R:1 pbc="T T T"
Si       0.94446162      -1.75431897      -1.19811719       0.00000000
Si      -1.21542948       1.40999724      -1.40108119       0.00000000
Si       1.36687761       1.34141634       1.33807674       0.00000000
Si      -1.36153449      -1.36203948       1.34747783       0.00000000
Si      -2.40951906      -0.20854458      -2.66567676       0.00000000
Si       2.73730177      -0.81963135      -2.49913306       0.00000000
Si      -2.69733078       2.68916949      -0.02123822       0.00000000
Si       0.00527796       2.70019782       2.69715153       0.00000000
Si      -2.70804960      -0.01405827       2.70068552       0.00000000
Si       2.72112537      -0.01332522       2.69629377       0.00000000
