10
Lattice="16.28999089631971 0.0 0.0 0.0 16.28999089631971 0.0 0.0 0.0 34.31052061344573" Properties=species:S:1:pos:R:3:initial_magmoms:R:1 pbc="T T T"
Si       0.37800945       1.76391378       1.47545614       0.00000000
Si      -1.31207805      -1.79403399       0.81000322       0.00000000
Si       2.20391387      -0.76227426      -0.44888479       0.00000000
Si      -1.11377988      -0.00819387      -2.12958658       0.00000000
Si      -2.01720699      -2.39981022      -1.88488381       0.00000000
Si      -1.30142439       1.70520462       3.04948647       0.00000000
Si       2.02183076       1.06950366       2.97252793       0.00000000
Si      -0.42748218      -2.27282967       2.97273379       0.00000000
Si       1.13604735       3.64811292       0.34063504       0.00000000
Si       2.98304828      -2.09727234       1.30510431       0.00000000
