10
Lattice="16.28999089631971 0.0 0.0 0.0 16.28999089631971 0.0 0.0 0.0 34.31052061344573" Properties=species:S:1:pos:R:3:initial_magmoms:R:1 pbc="T T T"
Si       1.35878148       1.35109260       1.35392821       0.00000000
Si      -1.35842310       1.35492075      -1.36178532       0.00000000
Si       1.35821133      -1.36014984      -1.36219705       0.00000000
Si      -1.37259540      -1.35593073       1.37156383       0.00000000
Si      -2.71070487       2.71302097       0.00061759       0.00000000
Si       2.71823522       2.71071178      -0.00195570       0.00000000
Si      -2.71160082      -2.71956663      -0.00576417       0.00000000
Si       2.69794980      -0.05018949       2.73338346       0.00000000
Si      -0.00021177       2.71440606      -2.71907597       0.00000000
Si      -2.71479366      -0.00089595      -2.71911028       0.00000000
