10
Lattice="16.28999089631971 0.0 0.0 0.0 16.28999089631971 0.0 0.0 0.0 34.31052061344573" Properties=species:S:1:pos:R:3:initial_magmoms:R:1 pbc="T T T"
Si      -1.67943384      -0.05870916       1.57403032       0.00000000
Si       0.75803790       1.88419914      -1.13482110       0.00000000
Si       1.64382131      -0.69441012       1.49707178       0.00000000
Si      -0.37800945      -1.76391378      -1.47545614       0.00000000
Si       3.46980977       0.44193141       0.60235584       0.00000000
Si       1.82590442      -2.52618804      -1.92434093       0.00000000
Si       3.03900443       1.34478837      -1.54229307       0.00000000
Si      -3.63012876       0.46134909       0.40839836       0.00000000
Si       1.32077758       0.71464230       3.37485331       0.00000000
Si       0.08145000       3.69262764       0.26974946       0.00000000
