10
Lattice="16.28999089631971 0.0 0.0 0.0 16.28999089631971 0.0 0.0 0.0 34.31052061344573" Properties=species:S:1:pos:R:3:initial_magmoms:R:1 pbc="T T T"
Si       0.70330446       2.15500410      -0.39683570       0.00000000
Si       1.52466255      -0.68821992       1.63071134       0.00000000
Si       0.81534708      -0.85600692      -2.02802739       0.00000000
Si      -2.25289790      -0.18438651       0.64991024       0.00000000
Si       1.22745150      -2.98432800       1.32349476       0.00000000
Si      -0.58276986      -2.74804155      -2.14248735       0.00000000
Si      -0.69893059      -3.47350041       0.09188363       0.00000000
Si       3.04624629       1.93657149      -0.31541679       0.00000000
Si      -3.34015766       0.17436816      -1.42440206       0.00000000
Si      -2.29258034       1.17281484       2.66616912       0.00000000
