10
Lattice="16.28999089631971 0.0 0.0 0.0 16.28999089631971 0.0 0.0 0.0 34.31052061344573" Properties=species:S:1:pos:R:3:initial_magmoms:R:1 pbc="T T T"
Si      -0.11616073      -0.72545886       2.23437097       0.00000000
Si       1.39811694       1.89203463       0.11445996       0.00000000
Si      -2.05727617       0.97702533      -0.67835368       0.00000000
Si       0.21064110      -1.53344286      -1.81564514       0.00000000
Si      -1.11164167       1.79320320      -2.73609400       0.00000000
Si       0.58276986       2.74804155       2.14248735       0.00000000
Si       0.91680446       2.87142201      -1.99189839       0.00000000
Si      -0.17290532      -0.14801094      -3.71092505       0.00000000
Si       2.34945294      -2.43263457      -1.68866184       0.00000000
Si      -0.15481364      -3.04060506       2.26875013       0.00000000
