10
Lattice="16.28999089631971 0.0 0.0 0.0 16.28999089631971 0.0 0.0 0.0 34.31052061344573" Properties=species:S:1:pos:R:3:initial_magmoms:R:1 pbc="T T T"
Si       0.29721105       2.29610808       0.30721657       0.00000000
Si       1.80183690      -0.56156517      -1.37777404       0.00000000
Si      -1.92638209      -0.48917241      -1.23161114       0.00000000
Si      -0.01977606      -1.21163391       2.01104367       0.00000000
Si      -1.22745150       2.98432800      -1.32349476       0.00000000
Si      -1.96503501      -2.80431861      -1.19723198       0.00000000
Si      -2.28631926      -1.49185449       2.51688396       0.00000000
Si       3.13592274       1.35658233      -1.45559034       0.00000000
Si      -3.77036027       0.50432211      -0.07414508       0.00000000
Si       1.23624810      -0.12370626       3.66460582       0.00000000
