10
Lattice="16.28999089631971 0.0 0.0 0.0 16.28999089631971 0.0 0.0 0.0 34.31052061344573" Properties=species:S:1:pos:R:3:initial_magmoms:R:1 pbc="T T T"
Si      -1.34848457      -1.34219826       1.38048457       0.00000000
Si      -1.51124122       1.14873822      -1.41933439       0.00000000
Si       1.36588392       1.37194380       1.38384700       0.00000000
Si       1.32168915      -1.57208274      -1.44854982       0.00000000
Si       0.01545921       2.24494119      -2.95806401       0.00000000
Si      -2.69509462      -0.79109127      -2.45463229       0.00000000
Si       2.71147050       2.70733284       0.01598185       0.00000000
Si      -2.69320031      -2.72821662       0.01218710       0.00000000
Si      -2.70330011       2.72466540       0.01351149       0.00000000
Si       2.72829807      -2.70744687       0.02802142       0.00000000
