10
Lattice="16.28999089631971 0.0 0.0 0.0 16.28999089631971 0.0 0.0 0.0 34.31052061344573" Properties=species:S:1:pos:R:3:initial_magmoms:R:1 pbc="T T T"
Si      -1.35424776       1.35474156      -1.35821703       0.00000000
Si      -1.35796188      -1.35733167       1.35866307       0.00000000
Si       1.35795972       1.35723393       1.35907479       0.00000000
Si       1.36278645      -1.35741312      -1.36030997       0.00000000
Si      -2.72112537       0.01332522      -2.69629377       0.00000000
Si      -2.71584741       2.71352304       0.00085776       0.00000000
Si       2.71498514       2.71441899       0.00150966       0.00000000
Si      -2.71441389      -2.71534752      -0.00102932       0.00000000
Si       0.00051351       2.71467963       2.71639975       0.00000000
Si       2.71493627      -0.00034209       2.71615957       0.00000000
