10
Lattice="16.28999089631971 0.0 0.0 0.0 16.28999089631971 0.0 0.0 0.0 34.31052061344573" Properties=species:S:1:pos:R:3:initial_magmoms:R:1 pbc="T T T"
Si      -1.35296499       1.35435060       1.35711909       0.00000000
Si      -1.35578797      -1.35798327      -1.35612409       0.00000000
Si       1.35921316       1.35677781      -1.35615840       0.00000000
Si       1.35712805      -1.35381303       1.36343223       0.00000000
Si      -2.70917265      -0.01154961       2.70816522       0.00000000
Si      -2.71249581       2.71248048       0.00102932       0.00000000
Si       0.00905724       2.70668124       2.71842407       0.00000000
Si      -2.71368498      -0.00021177      -2.71365490       0.00000000
Si       0.00223662       2.71435383      -2.71324318       0.00000000
Si      -2.71375014      -2.71603170       0.00181846       0.00000000
