10
Lattice="16.28999089631971 0.0 0.0 0.0 16.28999089631971 0.0 0.0 0.0 34.31052061344573" Properties=species:S:1:pos:R:3:initial_magmoms:R:1 pbc="T T T"
Si      -1.35712805       1.35381303      -1.36343223       0.00000000
Si      -1.35991038      -1.36075257       1.36243722       0.00000000
Si       1.35904212      -1.36443411      -1.36044721       0.00000000
Si       1.36664955       1.35496962       1.39667914       0.00000000
Si      -2.71009304       2.70816363      -0.00631314       0.00000000
Si       2.71583622       2.71002069       0.00082345       0.00000000
Si       0.00208512       2.71059084      -2.71959063       0.00000000
Si      -2.71291602      -0.00417024      -2.71955632       0.00000000
Si      -2.71471940      -2.71899648      -0.00188708       0.00000000
Si       2.71759554      -0.00426798      -2.71948769       0.00000000
