10
Lattice="16.28999089631971 0.0 0.0 0.0 16.28999089631971 0.0 0.0 0.0 34.31052061344573" Properties=species:S:1:pos:R:3:initial_magmoms:R:1 pbc="T T T"
Si       0.77913441      -1.33499808       1.75398910       0.00000000
Si      -2.20391387       0.76227426       0.44888479       0.00000000
Si       1.30588785       1.82309535      -1.01401369       0.00000000
Si      -0.21618948      -1.92842649      -1.56706528       0.00000000
Si      -1.82590442       2.52618804       1.92434093       0.00000000
Si      -0.37557898      -0.57743163       3.62682992       0.00000000
Si       3.11415930      -1.43454627       1.58387745       0.00000000
Si      -3.31769375       0.75408039      -1.68070179       0.00000000
Si      -3.51599192      -1.03175973       1.25888802       0.00000000
Si      -0.18208310       1.83177792       3.42141272       0.00000000
