10
Lattice="10.86 0.0 0.0 0.0 10.86 0.0 0.0 0.0 10.86" Properties=species:S:1:pos:R:3:initial_magmoms:R:1 pbc="T T T"
Si      -1.14808662      -1.40610936      -1.16067336       0.00000000
Si      -1.06894980       1.15114914       1.63482096       0.00000000
Si       1.71216588       1.46195148      -1.35061476       0.00000000
Si      -2.54192418       0.05277960      -2.62560048       0.00000000
Si      -2.54192418      -2.66222040       0.08939952       0.00000000
Si       0.17307582      -2.66222040      -2.62560048       0.00000000
Si      -2.54192418       2.76777960       0.08939952       0.00000000
Si      -2.54192418       0.05277960       2.80439952       0.00000000
Si       0.17307582       2.76777960      -2.62560048       0.00000000
Si       2.88807582       0.05277960      -2.62560048       0.00000000
