10
Lattice="10.86 0.0 0.0 0.0 10.86 0.0 0.0 0.0 10.86" Properties=species:S:1:pos:R:3:initial_magmoms:R:1 pbc="T T T"
Si      -1.37114016      -1.26120438       1.32047826       0.00000000
Si       1.34385984       1.45379562       1.32047826       0.00000000
Si      -1.37114016       1.45379562      -1.39452174       0.00000000
Si       2.62611090      -2.43972072      -0.12717060       0.00000000
Si      -2.61316578      -0.16283484      -2.56410030       0.00000000
Si       2.51276508      -0.04087704      -2.68327794       0.00000000
Si      -2.46346068      -2.77058148      -0.05604846       0.00000000
Si      -0.01364016      -2.61870438       2.67797826       0.00000000
Si       2.70135984       0.09629562       2.67797826       0.00000000
Si      -2.72864016       0.09629562       2.67797826       0.00000000
