10
Lattice="16.28999089631971 0.0 0.0 0.0 16.28999089631971 0.0 0.0 0.0 34.376317263855086" Properties=species:S:1:pos:R:3:initial_magmoms:R:1 pbc="T T T"
Si      -2.07715812       0.90272664       0.68474225       0.00000000
Si       1.63038791       0.74919339      -1.62094739       0.00000000
Si      -1.09780332      -1.91511756      -1.03496836       0.00000000
Si       1.63276625       0.66495780       1.86495063       0.00000000
Si      -0.26726840       2.11040927      -2.26931948       0.00000000
Si       2.10346580      -1.60726914      -2.10073792       0.00000000
Si      -1.14579366       3.01663500       1.39952941       0.00000000
Si      -0.28772050       1.50235521       3.21435934       0.00000000
Si      -2.51086308       1.22429124      -2.67516650       0.00000000
Si      -2.25825405      -1.11340521      -2.98709738       0.00000000
