10
Lattice="16.28999089631971 0.0 0.0 0.0 16.28999089631971 0.0 0.0 0.0 34.376317263855086" Properties=species:S:1:pos:R:3:initial_magmoms:R:1 pbc="T T T"
Si      -1.35583299      -1.35655166      -1.35679962       0.00000000
Si       1.35949824       1.35861206      -1.35686838       0.00000000
Si      -1.35443205       1.35924737       1.36157794       0.00000000
Si       1.36256076      -1.35416271       1.36243734       0.00000000
Si      -2.71329661       0.00171697      -2.71414927       0.00000000
Si       0.00161271      -2.71378109      -2.71418365       0.00000000
Si      -2.71542897      -2.71443269       0.00013751       0.00000000
Si       2.71410948      -2.71599653      -0.00061877       0.00000000
Si       0.00167787       2.71636727      -2.71401176       0.00000000
Si      -2.71469918       2.71643243      -0.00003438       0.00000000
