10
Lattice="16.28999089631971 0.0 0.0 0.0 16.28999089631971 0.0 0.0 0.0 34.376317263855086" Properties=species:S:1:pos:R:3:initial_magmoms:R:1 pbc="T T T"
Si       2.19866130       0.40166416       0.75765446       0.00000000
Si      -1.21362129       1.47766753       1.40021694       0.00000000
Si      -0.24003315      -2.35778758       0.08085314       0.00000000
Si      -0.59735430       0.52408351      -2.27877297       0.00000000
Si       0.89715546      -2.81569948      -1.93212199       0.00000000
Si       1.95734124       2.71797184       1.31351982       0.00000000
Si       3.39073092       0.26266159      -1.20887825       0.00000000
Si      -2.58160662      -2.51431819       0.34386649       0.00000000
Si      -3.60891918      -0.52912689      -0.48474072       0.00000000
Si      -0.21129759       3.60343108       0.79808103       0.00000000
