10
Lattice="16.28999089631971 0.0 0.0 0.0 16.28999089631971 0.0 0.0 0.0 34.376317263855086" Properties=species:S:1:pos:R:3:initial_magmoms:R:1 pbc="T T T"
Si       1.35728280      -1.35345465       1.35831218       0.00000000
Si      -1.35822762      -1.35544203      -1.35728089       0.00000000
Si       1.35726651       1.35957969      -1.35686838       0.00000000
Si      -1.35747828       1.36200690       1.36326238       0.00000000
Si       2.69166186       0.00144981       2.72951549       0.00000000
Si       2.71331127      -2.71340901       0.00006875       0.00000000
Si      -0.00030951      -2.71301805      -2.71428678       0.00000000
Si      -2.71668656      -2.71295289      -0.00030939       0.00000000
Si       2.71494027       0.00195480      -2.71473367       0.00000000
Si       2.71370223       2.71608057      -0.00085941       0.00000000
