10
Lattice="16.28999089631971 0.0 0.0 0.0 16.28999089631971 0.0 0.0 0.0 34.376317263855086" Properties=species:S:1:pos:R:3:initial_magmoms:R:1 pbc="T T T"
Si       1.52278920       1.30284162       1.15363548       0.00000000
Si       1.50275250      -1.20617676      -1.33974896       0.00000000
Si      -1.23033483       1.50552180      -1.31812625       0.00000000
Si      -1.06043013      -1.63699839       1.55023527       0.00000000
Si      -2.56471389       0.15061734      -2.68932956       0.00000000
Si       0.15161103      -2.56846059      -2.68747323       0.00000000
Si       1.00419705      -3.18572127       1.65941451       0.00000000
Si      -2.65181652      -2.64541455       0.09484431       0.00000000
Si       2.77270461      -2.60470584       0.02151959       0.00000000
Si       2.81939175      -0.08443107       2.55419618       0.00000000
