10
Lattice="16.28999089631971 0.0 0.0 0.0 16.28999089631971 0.0 0.0 0.0 34.376317263855086" Properties=species:S:1:pos:R:3:initial_magmoms:R:1 pbc="T T T"
Si      -0.69149421       1.70719200       1.49433935       0.00000000
Si       2.17432404      -0.69372594       0.70935570       0.00000000
Si      -1.31818680      -2.01331368       0.17748503       0.00000000
Si      -0.62361378       1.10089449      -2.18265673       0.00000000
Si      -2.77071723       2.40991002       0.56308439       0.00000000
Si      -2.79414225      -1.78971714      -1.71156342       0.00000000
Si       2.83232601      -2.45623878      -0.69849278       0.00000000
Si       0.85519242       3.49826121       1.29846298       0.00000000
Si       3.66959943       1.18688940       0.63135580       0.00000000
Si      -0.42961617       1.05221997       3.79239744       0.00000000
