10
Lattice="16.28999089631971 0.0 0.0 0.0 16.28999089631971 0.0 0.0 0.0 34.376317263855086" Properties=species:S:1:pos:R:3:initial_magmoms:R:1 pbc="T T T"
Si       1.20888090       1.60722027       1.26257206       0.00000000
Si       0.03002247       0.14722902      -2.38595839       0.00000000
Si      -1.55610225      -1.28769192       1.34133856       0.00000000
Si       1.79859519       3.04168509      -0.89130965       0.00000000
Si      -2.13043878       0.95900859      -2.83536023       0.00000000
Si       2.51739144       0.15006348       2.83496288       0.00000000
Si      -0.19997604      -2.58980049       2.83815988       0.00000000
Si       1.93552893       1.73196909      -2.89104990       0.00000000
Si      -3.28411287      -2.30102766       0.01512559       0.00000000
Si      -0.20201229       2.85233013       2.84808777       0.00000000
