10
Lattice="16.28999089631971 0.0 0.0 0.0 16.28999089631971 0.0 0.0 0.0 34.376317263855086" Properties=species:S:1:pos:R:3:initial_magmoms:R:1 pbc="T T T"
Si       1.35643572       1.35650088       1.35600897       0.00000000
Si       1.35767376      -1.35762489      -1.35786529       0.00000000
Si      -1.35793440       1.35783666      -1.35759028       0.00000000
Si      -1.35726651      -1.35957969       1.35686838       0.00000000
Si       0.00001629      -2.71303434       2.71518056       0.00000000
Si      -2.71427238       0.00087966      -2.71493993       0.00000000
Si      -0.00065160      -2.71365336      -2.71586809       0.00000000
Si       2.71477737       2.71510317      -0.00030939       0.00000000
Si      -2.71531494       2.71482624      -0.00020626       0.00000000
Si       2.71498914      -2.71531494       0.00006875       0.00000000
