10
Lattice="16.28999089631971 0.0 0.0 0.0 16.28999089631971 0.0 0.0 0.0 34.376317263855086" Properties=species:S:1:pos:R:3:initial_magmoms:R:1 pbc="T T T"
Si      -1.35643572      -1.35650088      -1.35600897       0.00000000
Si       1.35944937      -1.35299853       1.35906846       0.00000000
Si      -1.35501849       1.35760860       1.36047789       0.00000000
Si       1.35834165       1.35860229      -1.35631836       0.00000000
Si       2.68475490       0.00920385       2.70730838       0.00000000
Si      -2.69552259      -0.00646713       2.72480593       0.00000000
Si      -2.71437012       0.00133578      -2.71359925       0.00000000
Si       0.00123804      -2.71412577      -2.71387426       0.00000000
Si      -2.71523349       2.71432125       0.00130630       0.00000000
Si      -2.71370223      -2.71608057       0.00085941       0.00000000
