10
Lattice="16.28999089631971 0.0 0.0 0.0 16.28999089631971 0.0 0.0 0.0 34.376317263855086" Properties=species:S:1:pos:R:3:initial_magmoms:R:1 pbc="T T T"
Si      -1.34539110      -1.35778779      -1.39289478       0.00000000
Si       1.36518345       1.36216980      -1.39093533       0.00000000
Si       1.27638666      -1.48219452       1.46236935       0.00000000
Si      -1.52917488       1.34185617       1.46608200       0.00000000
Si       2.69438229      -2.70619254      -0.04606429       0.00000000
Si      -2.68589520      -2.72186352      -0.02856674       0.00000000
Si       2.71070487       2.71393029      -0.00560334       0.00000000
Si      -2.71423980       2.71621089      -0.02416656       0.00000000
Si      -2.70560610      -0.00107514      -2.75206637       0.00000000
Si       0.00804726       2.71313208      -2.75340705       0.00000000
