10
Lattice="16.28999089631971 0.0 0.0 0.0 16.28999089631971 0.0 0.0 0.0 34.376317263855086" Properties=species:S:1:pos:R:3:initial_magmoms:R:1 pbc="T T T"
Si       1.82413791      -1.08958923       0.98471016       0.00000000
Si      -0.88039305       0.39693843       2.17083127       0.00000000
Si       1.25292906       1.49413509      -1.49289554       0.00000000
Si      -1.53601668      -1.23176835      -1.48608903       0.00000000
Si      -1.84528233       2.59654455       1.98499280       0.00000000
Si       2.71725345      -2.65637772      -0.50650094       0.00000000
Si       2.96292294       2.43348165      -0.07401225       0.00000000
Si      -0.03587058      -2.45369754      -2.97826266       0.00000000
Si       1.85378571       2.75895585       2.16911246       0.00000000
Si       2.67092469       0.27013707      -3.00132918       0.00000000
