10
Lattice="16.28999089631971 0.0 0.0 0.0 16.28999089631971 0.0 0.0 0.0 34.376317263855086" Properties=species:S:1:pos:R:3:initial_magmoms:R:1 pbc="T T T"
Si      -1.69787412       1.54810386      -0.26112265       0.00000000
Si       0.58327974      -1.32721146      -1.82510846       0.00000000
Si      -0.47908890      -1.38119652       1.85023756       0.00000000
Si       2.08987668       1.16396937       0.19625450       0.00000000
Si      -3.11911146       0.26448444      -1.65143920       0.00000000
Si       1.69743429      -1.86109992       2.53700801       0.00000000
Si      -2.33927658       1.87580979       1.99987775       0.00000000
Si      -1.42576596       0.14810868       3.31810713       0.00000000
Si       3.12917868      -0.07438014       1.88705461       0.00000000
Si       2.32104807      -2.74843251      -1.02847123       0.00000000
