10
Lattice="16.28999089631971 0.0 0.0 0.0 16.28999089631971 0.0 0.0 0.0 34.376317263855086" Properties=species:S:1:pos:R:3:initial_magmoms:R:1 pbc="T T T"
Si      -1.58912208      -0.73894698      -1.51575580       0.00000000
Si       1.57514526      -1.58412105       0.61561143       0.00000000
Si      -0.29561463       1.09444365       2.04659519       0.00000000
Si       1.40494734       1.21142214      -1.44779379       0.00000000
Si       2.91952638       1.97583039       0.22131485       0.00000000
Si       3.57479163      -0.26761212       0.23204027       0.00000000
Si       1.89651438       1.91705607       2.46158633       0.00000000
Si      -2.17603449       1.17468819      -2.78073623       0.00000000
Si       2.38526325      -0.54942912      -2.89658449       0.00000000
Si       1.38899943      -3.46576266      -0.78807751       0.00000000
