10
Lattice="16.28999089631971 0.0 0.0 0.0 16.28999089631971 0.0 0.0 0.0 34.376317263855086" Properties=species:S:1:pos:R:3:initial_magmoms:R:1 pbc="T T T"
Si       2.31166014       0.49397796       0.13867414       0.00000000
Si      -1.10877463       2.09160342      -0.13568340       0.00000000
Si      -1.06303231      -0.61734213       2.07237744       0.00000000
Si      -0.15296799      -1.53073872      -1.97285795       0.00000000
Si      -1.62363637       0.34410996      -2.91356640       0.00000000
Si      -3.12288652       0.87739569      -1.10396167       0.00000000
Si       1.20338628      -3.28901453      -0.89749739       0.00000000
Si       0.18440769      -2.35998280       2.92315740       0.00000000
Si       2.54043690       2.09510577       1.84975629       0.00000000
Si      -3.26329003      -1.21500594       1.54232871       0.00000000
