10
Lattice="16.28999089631971 0.0 0.0 0.0 16.28999089631971 0.0 0.0 0.0 34.376317263855086" Properties=species:S:1:pos:R:3:initial_magmoms:R:1 pbc="T T T"
Si      -0.30468816       1.54875546       1.68650307       0.00000000
Si       0.29400192       1.42548903      -1.90400215       0.00000000
Si      -2.16075447      -0.90031572      -0.57549425       0.00000000
Si       2.09191293      -1.12057281       0.71351524       0.00000000
Si      -1.65097521       2.84177421       0.16139690       0.00000000
Si      -1.36352187       0.04719213       3.10942011       0.00000000
Si       2.22884667      -2.43028881      -1.28622501       0.00000000
Si       3.39825690       0.97002063       0.43977647       0.00000000
Si      -3.17689209      -0.75849498       1.66488035       0.00000000
Si       2.48613093       2.24810145      -1.48901101       0.00000000
