10
Lattice="16.28999089631971 0.0 0.0 0.0 16.28999089631971 0.0 0.0 0.0 34.376317263855086" Properties=species:S:1:pos:R:3:initial_magmoms:R:1 pbc="T T T"
Si       1.35483930       1.35503478       1.35638711       0.00000000
Si       1.35697329      -1.35711990      -1.35704026       0.00000000
Si      -1.35765747       1.35725022      -1.35717776       0.00000000
Si      -1.35881406      -1.35917244       1.35772779       0.00000000
Si      -2.71342530      -0.00058644      -2.71346174       0.00000000
Si       2.71396287       0.00026064      -2.71408052       0.00000000
Si      -0.00058644      -2.71401174      -2.71404614       0.00000000
Si      -0.00055386       2.71451656      -2.71363363       0.00000000
Si      -2.71510317       2.71447965       0.00020626       0.00000000
Si       2.71476108      -2.71489140       0.00010313       0.00000000
