10
Lattice="16.28999089631971 0.0 0.0 0.0 16.28999089631971 0.0 0.0 0.0 34.376317263855086" Properties=species:S:1:pos:R:3:initial_magmoms:R:1 pbc="T T T"
Si      -1.18506492       1.37435472      -1.49024856       0.00000000
Si       1.23048144       1.37873673       1.55356977       0.00000000
Si      -1.55805705      -1.28438505       1.46793832       0.00000000
Si       1.52917488      -1.34185617      -1.46608200       0.00000000
Si      -2.64404619       2.56036446      -0.00622212       0.00000000
Si      -2.46596391      -2.82958929      -0.02684792       0.00000000
Si      -2.53373031       0.01803303      -2.85684544       0.00000000
Si       1.52161632      -0.08682570       3.51604607       0.00000000
Si      -0.29264985      -1.72164123       3.47417569       0.00000000
Si       0.18378378      -2.69964396      -2.85897678       0.00000000
