10
Lattice="16.28999089631971 0.0 0.0 0.0 16.28999089631971 0.0 0.0 0.0 34.376317263855086" Properties=species:S:1:pos:R:3:initial_magmoms:R:1 pbc="T T T"
Si       1.88480187      -1.47240423       0.14224928       0.00000000
Si      -1.81426617      -1.63481553      -0.04187038       0.00000000
Si      -0.29113488       1.46556243      -1.96247630       0.00000000
Si      -0.89078607       1.25599158       1.96890467       0.00000000
Si      -1.76220333       3.13961147      -0.69261443       0.00000000
Si      -1.52161632       0.08682570      -3.51604607       0.00000000
Si      -1.68906123      -0.44222463       3.43075838       0.00000000
Si       0.59209263      -3.31753995       1.86677258       0.00000000
Si      -3.07967337      -1.19755935      -2.04810775       0.00000000
Si      -0.84937689      -3.83442165       0.14396810       0.00000000
