10
Lattice="16.28999089631971 0.0 0.0 0.0 16.28999089631971 0.0 0.0 0.0 34.376317263855086" Properties=species:S:1:pos:R:3:initial_magmoms:R:1 pbc="T T T"
Si       0.59443839      -1.72299330       1.41066734       0.00000000
Si       1.92233403       1.23817032      -0.44850806       0.00000000
Si      -1.46717514       1.76124222       0.47525285       0.00000000
Si      -1.38750075      -1.08763443      -1.55295100       0.00000000
Si      -1.35707103       2.53172664      -1.83851523       0.00000000
Si      -2.98654344      -1.75972725       0.07772490       0.00000000
Si      -3.40705350       0.47011311       0.84868299       0.00000000
Si       0.98450244       2.68825725      -2.10152858       0.00000000
Si      -2.30101137       0.64006668      -2.87118038       0.00000000
Si       1.57475430      -3.48384456      -0.03812336       0.00000000
