10
Lattice="16.28999089631971 0.0 0.0 0.0 16.28999089631971 0.0 0.0 0.0 34.376317263855086" Properties=species:S:1:pos:R:3:initial_magmoms:R:1 pbc="T T T"
Si       1.46717514      -1.76124222      -0.47525285       0.00000000
Si      -1.93987836      -1.29112911       0.37343014       0.00000000
Si       0.65847438       1.18319157       1.98103952       0.00000000
Si       0.11010411       0.77048442      -2.31376808       0.00000000
Si       0.07967439      -2.84887665      -2.02820385       0.00000000
Si       3.38950917      -0.52307190      -0.92376091       0.00000000
Si      -0.83383623      -1.12117554      -3.34643323       0.00000000
Si       2.45167758       0.92701503      -2.57678143       0.00000000
Si      -1.22487768       2.55470436       2.39761196       0.00000000
Si      -1.51936830      -3.52096947      -0.39752795       0.00000000
