10
Lattice="16.28999089631971 0.0 0.0 0.0 16.28999089631971 0.0 0.0 0.0 34.376317263855086" Properties=species:S:1:pos:R:3:initial_magmoms:R:1 pbc="T T T"
Si       2.11115142       1.05610906      -0.10886986       0.00000000
Si      -1.88335206       1.37151279       0.41657245       0.00000000
Si      -0.65847438      -1.18319157      -1.98103952       0.00000000
Si       0.01910817      -1.06165188       2.17076252       0.00000000
Si      -1.22284143       2.46017186       2.41837527       0.00000000
Si       1.77321537       3.24499148      -1.07577307       0.00000000
Si       3.68061147      -0.46832121      -1.11589026       0.00000000
Si      -3.75585498      -0.09202221       1.09192995       0.00000000
Si      -1.57051890      -2.80326465       2.24291845       0.00000000
Si       0.80870076      -2.94443379      -2.45629237       0.00000000
