10
Lattice="16.28999089631971 0.0 0.0 0.0 16.28999089631971 0.0 0.0 0.0 34.376317263855086" Properties=species:S:1:pos:R:3:initial_magmoms:R:1 pbc="T T T"
Si       1.58962707       1.74161277      -0.07215593       0.00000000
Si       1.27309608      -1.98114093       0.20584550       0.00000000
Si      -1.71225819       0.35477991      -1.63077903       0.00000000
Si      -0.67188105      -0.56485575       2.27124455       0.00000000
Si       0.41674707       3.27503934       1.50606168       0.00000000
Si      -2.18533608       2.71124244      -1.15098850       0.00000000
Si       3.46522509      -1.15852851       0.62083664       0.00000000
Si       3.42880065       1.04598090       1.43579645       0.00000000
Si       1.56871071      -3.07558458      -1.84074969       0.00000000
Si       1.57051890       2.80326465      -2.24291845       0.00000000
