10
Lattice="16.28999089631971 0.0 0.0 0.0 16.28999089631971 0.0 0.0 0.0 34.376317263855086" Properties=species:S:1:pos:R:3:initial_magmoms:R:1 pbc="T T T"
Si      -1.22631120       1.44258376       1.41188083       0.00000000
Si       1.49097483      -1.27104421       1.39508455       0.00000000
Si       1.08527238       1.84496305      -1.10940482       0.00000000
Si      -1.83068649      -0.95044657      -1.61041934       0.00000000
Si      -0.54416745       0.91146460      -3.57378942       0.00000000
Si      -2.54723472       2.73910486      -0.06744293       0.00000000
Si      -2.69961138      -2.61368230       0.00057752       0.00000000
Si      -2.57873958       0.09441847       2.78014152       0.00000000
Si       0.13949127      -2.62541110       2.77471006       0.00000000
Si       2.83512789      -2.58046699      -0.14235585       0.00000000
