10
Lattice="16.28999089631971 0.0 0.0 0.0 16.28999089631971 0.0 0.0 0.0 34.376317263855086" Properties=species:S:1:pos:R:3:initial_magmoms:R:1 pbc="T T T"
Si       0.80346678       0.84136058      -2.05271418       0.00000000
Si       1.89765631      -1.36121588       0.64837208       0.00000000
Si       0.12051179       1.87089021       1.54408191       0.00000000
Si      -2.24359468      -0.88611803      -0.40584703       0.00000000
Si       0.26726840      -2.11040927       2.26931948       0.00000000
Si      -1.80988972      -1.20768263       2.95406172       0.00000000
Si       3.77015923       0.10231912      -0.02698542       0.00000000
Si       3.04587325       1.57941324      -1.75542762       0.00000000
Si      -1.99098565      -3.22381448      -0.71777791       0.00000000
Si      -0.87852526       0.90622573       3.66884889       0.00000000
