10
Lattice="16.28999089631971 0.0 0.0 0.0 16.28999089631971 0.0 0.0 0.0 34.376317263855086" Properties=species:S:1:pos:R:3:initial_magmoms:R:1 pbc="T T T"
Si      -1.19206962       0.13900257       1.96653270       0.00000000
Si       2.19028824       0.65158371       0.58659781       0.00000000
Si      -0.82681524       1.80112014      -1.31939817       0.00000000
Si      -0.20492820      -2.38072553      -0.29223324       0.00000000
Si      -0.81629190       0.67263039      -3.41962045       0.00000000
Si      -3.39073092      -0.26266159       1.20887825       0.00000000
Si      -0.19407906      -1.65403838       3.34485192       0.00000000
Si       3.68735553      -0.72251689      -0.51213866       0.00000000
Si      -1.43338968       2.45531025       2.52239807       0.00000000
Si       0.71335539       3.62165796      -0.94393982       0.00000000
