10
Lattice="16.28999089631971 0.0 0.0 0.0 16.28999089631971 0.0 0.0 0.0 34.376317263855086" Properties=species:S:1:pos:R:3:initial_magmoms:R:1 pbc="T T T"
Si       1.83541059       1.04912389       1.06181628       0.00000000
Si      -1.54927674      -1.17855545       1.38681017       0.00000000
Si       0.77230890      -1.69704986      -1.54102241       0.00000000
Si      -0.99799056       1.79304095      -1.37831921       0.00000000
Si      -2.49885342      -2.41649771      -0.40210001       0.00000000
Si       0.74003841       2.73540116       2.29025466       0.00000000
Si      -0.01084914      -0.72668714      -3.63708515       0.00000000
Si       0.19407906       1.65403838      -3.34485192       0.00000000
Si       2.76236046       2.54529686      -0.48728457       0.00000000
Si      -0.60372369      -3.61658201      -1.15222605       0.00000000
