10
Lattice="16.28999089631971 0.0 0.0 0.0 16.28999089631971 0.0 0.0 0.0 34.376317263855086" Properties=species:S:1:pos:R:3:initial_magmoms:R:1 pbc="T T T"
Si       1.32530553       1.36220238       1.34823992       0.00000000
Si      -1.35944937       1.35299853      -1.35906846       0.00000000
Si       1.35581670      -1.36195803      -1.35896533       0.00000000
Si      -1.38148974      -1.36163223       1.37130644       0.00000000
Si       2.65079025      -0.01389537       2.62944598       0.00000000
Si      -2.71446786       2.71060713       0.00140943       0.00000000
Si      -0.00110772       2.71160082      -2.71538682       0.00000000
Si       2.71546155       2.71192662       0.00140943       0.00000000
Si       2.71259451      -2.71681362      -0.00061877       0.00000000
Si       2.71433754      -0.00316026      -2.71514618       0.00000000
