10
Lattice="16.28999089631971 0.0 0.0 0.0 16.28999089631971 0.0 0.0 0.0 34.376317263855086" Properties=species:S:1:pos:R:3:initial_magmoms:R:1 pbc="T T T"
Si      -1.35671265      -1.35685926      -1.35604334       0.00000000
Si       1.35677781      -1.35485559       1.35834656       0.00000000
Si       1.35852084       1.35879777      -1.35618085       0.00000000
Si      -1.35581670       1.36195803       1.35896533       0.00000000
Si      -0.00421911      -2.71137276       2.70864906       0.00000000
Si      -2.71402803       0.00083079      -2.71397739       0.00000000
Si       0.00099369      -2.71443528      -2.71373675       0.00000000
Si       2.71471221      -2.71438641       0.00110004       0.00000000
Si       2.71608057       0.00047241      -2.71335861       0.00000000
Si       0.00105885       2.71564074      -2.71418365       0.00000000
