10
Lattice="16.28999089631971 0.0 0.0 0.0 16.28999089631971 0.0 0.0 0.0 34.376317263855086" Properties=species:S:1:pos:R:3:initial_magmoms:R:1 pbc="T T T"
Si      -1.52278920      -1.30284162      -1.15363548       0.00000000
Si      -0.89311554       1.56678849       1.49121110       0.00000000
Si       1.27915596       1.55041704      -1.21362218       0.00000000
Si       1.29660255      -1.38727269       1.40056070       0.00000000
Si       2.01947130       0.23240943       2.88616846       0.00000000
Si      -0.02003670      -2.50901838      -2.49338444       0.00000000
Si      -0.28808865       0.55905651       3.54983801       0.00000000
Si       2.70949941       0.20085570      -2.48118084       0.00000000
Si      -2.75312403       0.20268018      -2.47176172       0.00000000
Si      -2.71725345       2.65637772       0.50650094       0.00000000
