10
Lattice="16.28999089631971 0.0 0.0 0.0 16.28999089631971 0.0 0.0 0.0 34.376317263855086" Properties=species:S:1:pos:R:3:initial_magmoms:R:1 pbc="T T T"
Si      -0.98443891      -1.57902717       1.45543362       0.00000000
Si       1.72801062       1.01333574       1.32621297       0.00000000
Si      -0.01001835      -0.24290019      -2.49338444       0.00000000
Si      -1.67527826       1.85956866       0.30400442       0.00000000
Si      -0.73142914       2.13765525      -2.01105006       0.00000000
Si      -2.09174351      -2.95567112      -0.04547989       0.00000000
Si      -2.35930857      -0.27205929       2.85459864       0.00000000
Si       0.37999683       2.44755621       2.83323031       0.00000000
Si      -2.94981668      -1.44139133      -1.86030982       0.00000000
Si       3.28411287       2.30102766      -0.01512559       0.00000000
