10
Lattice="16.28999089631971 0.0 0.0 0.0 16.28999089631971 0.0 0.0 0.0 34.376317263855086" Properties=species:S:1:pos:R:3:initial_magmoms:R:1 pbc="T T T"
Si      -1.94076128      -0.23382666      -1.49169237       0.00000000
Si       0.01001835       0.24290019       2.49338444       0.00000000
Si      -0.72141079       2.38055544       0.48233438       0.00000000
Si       2.36939679      -0.91373868      -1.06095687       0.00000000
Si      -2.93979833      -1.19849114       0.63307461       0.00000000
Si      -1.67836684       2.02877289      -2.34515367       0.00000000
Si       1.16369244       3.50293644      -0.35710138       0.00000000
Si      -0.16123842      -3.55016834       1.09849583       0.00000000
Si       2.43846639      -2.90213585       0.26964798       0.00000000
Si      -1.66525991       2.10246885       2.79738886       0.00000000
