10
Lattice="16.28999089631971 0.0 0.0 0.0 16.28999089631971 0.0 0.0 0.0 34.376317263855086" Properties=species:S:1:pos:R:3:initial_magmoms:R:1 pbc="T T T"
Si      -1.30481271       1.42125363       1.35627367       0.00000000
Si       1.41750693      -1.32813999       1.36923011       0.00000000
Si       2.02952223       0.59725656      -1.15581665       0.00000000
Si      -0.70288092       0.96772374      -2.66243836       0.00000000
Si      -2.00922489      -1.12286970      -2.38869959       0.00000000
Si      -2.59893918      -2.55733452      -0.23481788       0.00000000
Si      -2.65522113       0.04978224       2.73280531       0.00000000
Si       0.06486678      -2.66870925       2.73665546       0.00000000
Si       2.76027534       2.67965613      -0.03609859       0.00000000
Si       0.06177168       2.76796422       2.73620857       0.00000000
