10
Lattice="16.28999089631971 0.0 0.0 0.0 16.28999089631971 0.0 0.0 0.0 34.376317263855086" Properties=species:S:1:pos:R:3:initial_magmoms:R:1 pbc="T T T"
Si      -0.48697326       0.75913029      -2.16829743       0.00000000
Si      -2.02952223      -0.59725656       1.15581665       0.00000000
Si       0.73075311       2.08239957       1.11971806       0.00000000
Si       1.90764045      -1.72691919      -0.37130882       0.00000000
Si      -2.73240315       0.37046718      -1.50662171       0.00000000
Si      -0.61201530      -1.92539655       2.52504676       0.00000000
Si       2.11367637       0.81371808       2.53235861       0.00000000
Si       0.78380964      -3.29404977       1.07912992       0.00000000
Si       3.50425593      -0.54571500       1.16621550       0.00000000
Si       1.10467377       2.72155401      -2.37434919       0.00000000
