10
Lattice="16.28999089631971 0.0 0.0 0.0 16.28999089631971 0.0 0.0 0.0 34.376317263855086" Properties=species:S:1:pos:R:3:initial_magmoms:R:1 pbc="T T T"
Si       1.27316124       1.38188070      -1.40219843       0.00000000
Si       1.38292326      -1.26868149       1.41264055       0.00000000
Si      -1.35042471       1.43407386       1.39153691       0.00000000
Si      -0.73075311      -2.08239957      -1.11971806       0.00000000
Si       0.37392066       0.63915444      -3.49406726       0.00000000
Si      -1.21772637      -1.32326928      -3.28801550       0.00000000
Si       0.01640403      -2.63111193       2.76873202       0.00000000
Si       2.77350282      -2.62811457       0.04649743       0.00000000
Si      -2.76027534      -2.67965613       0.03609859       0.00000000
Si      -2.69850366       0.08830809       2.77230716       0.00000000
