10
Lattice="16.28999089631971 0.0 0.0 0.0 16.28999089631971 0.0 0.0 0.0 34.376317263855086" Properties=species:S:1:pos:R:3:initial_magmoms:R:1 pbc="T T T"
Si      -1.35824391      -1.35651717       1.35762466       0.00000000
Si       1.35684297       1.35829278       1.35741840       0.00000000
Si       1.35975888      -1.35842310      -1.35844969       0.00000000
Si      -1.36032903       1.36006839      -1.36229984       0.00000000
Si       2.71321353      -2.71270854      -0.00027501       0.00000000
Si       2.71373481       2.71515204      -0.00020626       0.00000000
Si      -2.71656927      -2.71254564      -0.00037814       0.00000000
Si       2.71430496       0.00144981       2.71542119       0.00000000
Si      -0.00092853      -2.71420722       2.71555870       0.00000000
Si      -0.00114030       2.71621089       2.71518056       0.00000000
