10
Lattice="16.28999089631971 0.0 0.0 0.0 16.28999089631971 0.0 0.0 0.0 34.376317263855086" Properties=species:S:1:pos:R:3:initial_magmoms:R:1 pbc="T T T"
Si       1.35767376       1.35672894       1.35793404       0.00000000
Si      -1.35778779       1.35777150      -1.35714339       0.00000000
Si      -1.35834165      -1.35860229       1.35631836       0.00000000
Si       1.35798327      -1.35791811      -1.35776216       0.00000000
Si       0.00110772      -2.71160082       2.71538682       0.00000000
Si      -0.00079821       2.71515204      -2.71418365       0.00000000
Si      -2.71534752       0.00087966      -2.71414927       0.00000000
Si      -2.71476108       2.71489140      -0.00010313       0.00000000
Si      -2.71477737      -2.71510317       0.00030939       0.00000000
Si      -2.71336014      -0.00099369       2.71679625       0.00000000
