10
Lattice="16.28999089631971 0.0 0.0 0.0 16.28999089631971 0.0 0.0 0.0 34.376317263855086" Properties=species:S:1:pos:R:3:initial_magmoms:R:1 pbc="T T T"
Si      -1.35689184      -1.35685926       1.35762466       0.00000000
Si       1.35801585       1.35793440       1.35834656       0.00000000
Si       1.35783666      -1.35632169      -1.36226546       0.00000000
Si      -1.35707103       1.36309833      -1.35869032       0.00000000
Si      -2.71373481      -2.71515204       0.00020626       0.00000000
Si       0.00057015      -2.71370223       2.71562745       0.00000000
Si       2.71523349       2.71446786       0.00044689       0.00000000
Si       2.71467963       0.00084708       2.71538682       0.00000000
Si      -2.71487511       0.00105885       2.71538682       0.00000000
Si       0.00026064       2.71627605       2.71514618       0.00000000
