10
Lattice="16.28999089631971 0.0 0.0 0.0 16.28999089631971 0.0 0.0 0.0 34.376317263855086" Properties=species:S:1:pos:R:3:initial_magmoms:R:1 pbc="T T T"
Si       1.32548472      -1.37609775       1.28120606       0.00000000
Si      -1.32530553      -1.36220238      -1.34823992       0.00000000
Si       1.39015602       1.34972424      -1.34683049       0.00000000
Si      -1.41799563       1.22399802       1.50843364       0.00000000
Si       2.17424259       0.39698730       2.54144256       0.00000000
Si       0.29199825       2.16334458       2.92731693       0.00000000
Si      -2.68475490      -0.00920385      -2.70730838       0.00000000
Si      -2.69438229       2.70619254       0.04606429       0.00000000
Si       0.03126051       2.70612738      -2.70569269       0.00000000
Si      -2.70679527      -2.72383461       0.02306652       0.00000000
