10
Lattice="16.28999089631971 0.0 0.0 0.0 16.28999089631971 0.0 0.0 0.0 34.376317263855086" Properties=species:S:1:pos:R:3:initial_magmoms:R:1 pbc="T T T"
Si      -0.84875787      -1.77308505      -1.26023650       0.00000000
Si       1.87611930       0.87356754      -1.11599339       0.00000000
Si       1.16310600      -1.41395571       1.54387565       0.00000000
Si      -1.88224434       1.76635728       0.38587438       0.00000000
Si      -2.17424259      -0.39698730      -2.54144256       0.00000000
Si       0.57331026       2.31179535      -2.51026322       0.00000000
Si      -3.02102937      -1.75671360       1.44459679       0.00000000
Si      -0.97401168       3.51202626      -1.08474530       0.00000000
Si       3.14688591       2.10864276       0.43262619       0.00000000
Si      -3.59223822       0.82701072      -1.03300891       0.00000000
