10
Lattice="16.28999089631971 0.0 0.0 0.0 16.28999089631971 0.0 0.0 0.0 34.376317263855086" Properties=species:S:1:pos:R:3:initial_magmoms:R:1 pbc="T T T"
Si      -1.35655739       1.35669636       1.36178419       0.00000000
Si       1.36050659      -1.35900954       1.36102791       0.00000000
Si      -1.36599487      -1.35721764      -1.36191482       0.00000000
Si       1.37331053       1.36239786      -1.38328315       0.00000000
Si       0.00887479      -2.66418552      -2.76107984       0.00000000
Si       2.71721924       2.70977634       0.00261260       0.00000000
Si      -2.71273365      -2.71521068       0.00223446       0.00000000
Si      -2.71421604       2.71469592       0.00594711       0.00000000
Si      -2.71304316      -0.00115659       2.71844631       0.00000000
Si       0.00179190       2.71371852       2.71861819       0.00000000
