10
Lattice="16.28999089631971 0.0 0.0 0.0 16.28999089631971 0.0 0.0 0.0 34.376317263855086" Properties=species:S:1:pos:R:3:initial_magmoms:R:1 pbc="T T T"
Si       0.65001987       1.34820927       1.78536941       0.00000000
Si       1.84207320      -0.78441237      -1.20554374       0.00000000
Si      -1.03930200       1.23834951      -1.69080011       0.00000000
Si      -1.43174439      -1.78671978       0.64995339       0.00000000
Si       1.80833661      -0.24337260       3.11466797       0.00000000
Si      -3.12917868       0.07438014      -1.88705461       0.00000000
Si       1.04818005      -1.27309608      -3.32972633       0.00000000
Si      -0.79386057      -3.61818819      -0.70392424       0.00000000
Si      -1.24510986       2.54829357       2.53549545       0.00000000
Si       0.24307938       0.94622094      -3.70061262       0.00000000
