10
Lattice="16.28999089631971 0.0 0.0 0.0 16.28999089631971 0.0 0.0 0.0 34.376317263855086" Properties=species:S:1:pos:R:3:initial_magmoms:R:1 pbc="T T T"
Si       0.84510891       1.17459045       1.86526002       0.00000000
Si       1.71188352      -0.96000228      -1.32142637       0.00000000
Si      -1.15831674       1.59158187      -1.32929856       0.00000000
Si      -1.29129201      -1.88476929       0.81770992       0.00000000
Si       1.32634809      -0.66650535       3.27922749       0.00000000
Si      -1.80833661       0.24337260      -3.11466797       0.00000000
Si      -1.13945292       2.25759852       2.63308987       0.00000000
Si       3.14962263      -2.12581242       0.29023941       0.00000000
Si      -3.40102620      -1.93034871      -0.16878781       0.00000000
Si       0.21771585       3.51111402      -1.71809492       0.00000000
