10
Lattice="16.28999089631971 0.0 0.0 0.0 16.28999089631971 0.0 0.0 0.0 34.376317263855086" Properties=species:S:1:pos:R:3:initial_magmoms:R:1 pbc="T T T"
Si       2.24542989       0.38866311      -0.66167572       0.00000000
Si      -1.30634397      -2.09059344       0.27373877       0.00000000
Si      -0.91212597       1.27808082      -1.92878749       0.00000000
Si       0.70288092      -0.96772374       2.66243836       0.00000000
Si       2.73240315      -0.37046718       1.50662171       0.00000000
Si      -3.39825690      -0.97002063      -0.43977647       0.00000000
Si      -2.04139764       1.79515800       2.47086935       0.00000000
Si      -0.94855041       3.48259023      -1.11382768       0.00000000
Si       2.54055582      -0.94938120      -2.68692321       0.00000000
Si      -3.10425498       0.45546840      -2.34377862       0.00000000
