10
Lattice="16.28999089631971 0.0 0.0 0.0 16.28999089631971 0.0 0.0 0.0 34.376317263855086" Properties=species:S:1:pos:R:3:initial_magmoms:R:1 pbc="T T T"
Si       1.34524449       1.35216841       1.35896533       0.00000000
Si       1.35436689      -1.35992178      -1.36257485       0.00000000
Si      -1.36246302       1.35571800      -1.36126855       0.00000000
Si      -1.37510406      -1.35959598       1.38516010       0.00000000
Si       2.58274692      -0.02021848       2.78713023       0.00000000
Si      -0.09518247       2.67620984       2.70741151       0.00000000
Si       2.70969489      -2.71192662      -0.00288761       0.00000000
Si       2.70935280       2.71688597      -0.00092816       0.00000000
Si      -2.71627605       2.71245509      -0.00158131       0.00000000
Si       2.71186146      -0.00021204      -2.71875570       0.00000000
