10
Lattice="16.28999089631971 0.0 0.0 0.0 16.28999089631971 0.0 0.0 0.0 34.376317263855086" Properties=species:S:1:pos:R:3:initial_magmoms:R:1 pbc="T T T"
Si      -0.65001987      -1.34820927      -1.78536941       0.00000000
Si      -1.89512973       1.20008430       0.75012604       0.00000000
Si       1.15831674      -1.59158187       1.32929856       0.00000000
Si       1.37603259       1.91953215      -0.38879637       0.00000000
Si      -0.94555305       2.43802656       2.53903621       0.00000000
Si       2.00342565      -0.41699142       3.19455857       0.00000000
Si       2.87020026      -2.55158415       0.00787218       0.00000000
Si       0.60372369       3.61658201       1.15222605       0.00000000
Si       0.59287455       2.88989487      -2.48485911       0.00000000
Si       1.19205333      -2.13262164      -2.99091316       0.00000000
