10
Lattice="16.28999089631971 0.0 0.0 0.0 16.28999089631971 0.0 0.0 0.0 34.376317263855086" Properties=species:S:1:pos:R:3:initial_magmoms:R:1 pbc="T T T"
Si       0.84699855       0.74982870       2.09650963       0.00000000
Si       1.98456183      -1.08300807      -0.76782985       0.00000000
Si      -1.72731015      -1.66268772       0.31602166       0.00000000
Si      -0.96441687       1.77200991      -1.42335221       0.00000000
Si       1.13945292      -2.25759852      -2.63308987       0.00000000
Si      -1.91399355       0.53406765      -3.21226239       0.00000000
Si      -0.89783964       1.90674450       3.16568245       0.00000000
Si       2.31806700       2.57606802       1.61465652       0.00000000
Si       2.46580101      -2.92410387       0.64613762       0.00000000
Si      -0.01886382      -0.66601665      -3.96238842       0.00000000
