10
Lattice="16.28999089631971 0.0 0.0 0.0 16.28999089631971 0.0 0.0 0.0 34.376317263855086" Properties=species:S:1:pos:R:3:initial_magmoms:R:1 pbc="T T T"
Si      -0.52613442       1.73769895      -1.47694492       0.00000000
Si       1.74483819      -1.15691580      -1.06917282       0.00000000
Si      -1.88890695      -1.42369713       0.20557049       0.00000000
Si       0.57083418       1.27871028       2.33013122       0.00000000
Si       1.71224190       2.48093509      -1.80310760       0.00000000
Si      -2.16010287      -1.23364170       2.55381804       0.00000000
Si       3.21590664       0.66932352      -1.55102593       0.00000000
Si       1.85735322       3.14062145       0.36676113       0.00000000
Si      -1.38666996       3.53156516      -0.01086292       0.00000000
Si       0.89783964      -1.90674450      -3.16568245       0.00000000
