10
Lattice="16.28999089631971 0.0 0.0 0.0 16.28999089631971 0.0 0.0 0.0 34.376317263855086" Properties=species:S:1:pos:R:3:initial_magmoms:R:1 pbc="T T T"
Si       1.34789066       1.33190125       1.37477845       0.00000000
Si       1.35232154      -1.36001214      -1.35827781       0.00000000
Si      -1.36104579       1.35378198      -1.35759028       0.00000000
Si      -1.37727063      -1.35667269       1.37460657       0.00000000
Si      -0.08944839       2.55624136       2.79293983       0.00000000
Si       2.71090754      -2.71481886       0.00360952       0.00000000
Si       2.71331846       2.71366792       0.00316262       0.00000000
Si       2.71191752      -0.00213111      -2.71521494       0.00000000
Si      -0.00294079       2.71339099      -2.71528369       0.00000000
Si      -0.00266977      -2.71665963      -2.71500868       0.00000000
