10
Lattice="16.28999089631971 0.0 0.0 0.0 16.28999089631971 0.0 0.0 0.0 34.376317263855086" Properties=species:S:1:pos:R:3:initial_magmoms:R:1 pbc="T T T"
Si       1.43733905      -1.22434011      -1.41816138       0.00000000
Si       1.75870817       0.78830568       1.37574099       0.00000000
Si      -1.26299628       1.51861896      -1.41582379       0.00000000
Si      -1.39997889      -1.41645622       1.44889383       0.00000000
Si      -0.76465260       1.12215294       3.37695941       0.00000000
Si       2.56913567       2.72681568       0.03007929       0.00000000
Si      -2.75817393      -2.57764163      -0.00220009       0.00000000
Si       0.08944839      -2.55624136      -2.79293983       0.00000000
Si       2.69004005      -2.72872880       0.06129301       0.00000000
Si      -2.63156805       0.15946281      -2.79025848       0.00000000
