10
Lattice="16.28999089631971 0.0 0.0 0.0 16.28999089631971 0.0 0.0 0.0 34.376317263855086" Properties=species:S:1:pos:R:3:initial_magmoms:R:1 pbc="T T T"
Si       1.35819504       1.16118541       1.45109392       0.00000000
Si      -1.23750243       1.37238689      -1.42816490       0.00000000
Si      -1.63564632      -1.23117932       1.31716371       0.00000000
Si       1.47035169      -1.33527242      -1.41613318       0.00000000
Si       1.91721897      -0.92311913       2.61531730       0.00000000
Si      -0.02454903       2.52541589       2.75983542       0.00000000
Si       2.75817393       2.57764163       0.00220009       0.00000000
Si      -0.16931826      -2.48230019       2.84543250       0.00000000
Si      -2.58274692       0.02021848      -2.78713023       0.00000000
Si      -2.67792939       2.69642831      -0.07971872       0.00000000
