10
Lattice="16.28999089631971 0.0 0.0 0.0 16.28999089631971 0.0 0.0 0.0 34.376317263855086" Properties=species:S:1:pos:R:3:initial_magmoms:R:1 pbc="T T T"
Si      -2.30316165       0.49539519       0.21110508       0.00000000
Si       1.27384542       2.02385331       0.16555644       0.00000000
Si       1.27345446      -1.74761401       1.11664654       0.00000000
Si       0.57888144       0.59233698      -2.36687952       0.00000000
Si       2.59695180       1.76671566      -1.74755544       0.00000000
Si      -2.31368499       1.62388494       2.31132736       0.00000000
Si      -3.13183395      -1.88820192      -0.32427198       0.00000000
Si       3.14504514      -2.08973726      -0.34403838       0.00000000
Si      -0.31783419      -3.46228379       1.66096145       0.00000000
Si       2.20048578      -0.89975209       3.11858687       0.00000000
