10
Lattice="16.28999089631971 0.0 0.0 0.0 16.28999089631971 0.0 0.0 0.0 34.376317263855086" Properties=species:S:1:pos:R:3:initial_magmoms:R:1 pbc="T T T"
Si       1.24744000      -1.74264067       0.85077995       0.00000000
Si      -2.20025772      -0.59766381      -0.53004873       0.00000000
Si      -0.52976709       1.67967819       1.63947624       0.00000000
Si       1.06303231       0.61734213      -2.07237744       0.00000000
Si      -2.52214812       1.79475075      -0.71361837       0.00000000
Si      -0.04574232       2.70894555      -2.20806084       0.00000000
Si      -0.53232462       3.49614351      -0.00512207       0.00000000
Si       1.23527300      -3.28618889      -0.94682744       0.00000000
Si       3.48984647      -1.00458801       1.14806651       0.00000000
Si      -2.57825088      -0.83733858      -2.80101827       0.00000000
