10
Lattice="16.28999089631971 0.0 0.0 0.0 16.28999089631971 0.0 0.0 0.0 34.376317263855086" Properties=species:S:1:pos:R:3:initial_magmoms:R:1 pbc="T T T"
Si       1.31703021      -1.40188482      -1.41884891       0.00000000
Si      -1.39649283       1.30668606      -1.43400888       0.00000000
Si      -1.34366436      -1.55807334       1.24122638       0.00000000
Si       0.99725751       1.64266731       1.48165448       0.00000000
Si       2.56344327       2.62857069      -0.02805109       0.00000000
Si      -2.80938969      -0.28144233       2.44773266       0.00000000
Si      -0.04839759       2.66426208      -2.79538055       0.00000000
Si       2.67012648      -0.04764825      -2.79840567       0.00000000
Si      -2.82683628       2.65624740      -0.16645022       0.00000000
Si       2.58002649      -2.92050378      -0.00302512       0.00000000
