10
Lattice="16.28999089631971 0.0 0.0 0.0 16.28999089631971 0.0 0.0 0.0 34.376317263855086" Properties=species:S:1:pos:R:3:initial_magmoms:R:1 pbc="T T T"
Si      -1.99532952       0.63799785      -1.15521679       0.00000000
Si       1.49925015      -0.53328573      -1.80960473       0.00000000
Si      -0.51839667      -2.33207640       0.37532084       0.00000000
Si      -0.46229391       0.30001293       2.46272075       0.00000000
Si       2.01411189       1.21420773       0.96827827       0.00000000
Si      -0.14040351      -2.09240163       2.64629038       0.00000000
Si       3.12288652      -0.87739569       1.10396167       0.00000000
Si      -2.60980461       1.22533380       2.23985896       0.00000000
Si      -2.77742871       2.38573566       0.18525408       0.00000000
Si      -1.17509544       1.21784040      -3.26829581       0.00000000
