10
Lattice="16.28999089631971 0.0 0.0 0.0 16.28999089631971 0.0 0.0 0.0 34.376317263855086" Properties=species:S:1:pos:R:3:initial_magmoms:R:1 pbc="T T T"
Si      -0.79420266       2.20755564      -0.08140316       0.00000000
Si      -1.58061870      -1.75832631      -0.58735409       0.00000000
Si       2.11219398       0.32891139      -1.19536835       0.00000000
Si       0.52786116       0.26736777       2.56323715       0.00000000
Si       3.46884051       0.19872171       0.75927014       0.00000000
Si       0.11981295       0.44398395      -3.54846296       0.00000000
Si      -1.92039552       2.60038899       1.96230442       0.00000000
Si       2.53030941       1.49810985       2.49176875       0.00000000
Si      -2.42997930       2.46519828      -1.71641048       0.00000000
Si       0.44170335      -1.94843061      -3.36489332       0.00000000
