10
Lattice="16.28999089631971 0.0 0.0 0.0 16.28999089631971 0.0 0.0 0.0 34.376317263855086" Properties=species:S:1:pos:R:3:initial_magmoms:R:1 pbc="T T T"
Si      -0.27649017      -2.03621742       1.12046231       0.00000000
Si       2.00244825       1.23074208      -0.07146840       0.00000000
Si      -1.37907882       1.49390703       1.28429993       0.00000000
Si      -0.52786116      -0.26736777      -2.56323715       0.00000000
Si      -2.44825668       2.33302122      -0.60093274       0.00000000
Si       2.94097935      -0.06864606      -1.80396701       0.00000000
Si      -1.32206382       1.94018787      -2.64464032       0.00000000
Si       2.67858492      -2.33124561      -0.95050570       0.00000000
Si      -2.47386456      -2.66429466       0.90176006       0.00000000
Si      -0.84442473      -1.73079621       3.36614466       0.00000000
