10
Lattice="16.28999089631971 0.0 0.0 0.0 16.28999089631971 0.0 0.0 0.0 34.376317263855086" Properties=species:S:1:pos:R:3:initial_magmoms:R:1 pbc="T T T"
Si      -1.35666378       1.35708732      -1.35704026       0.00000000
Si       1.35681039       1.35690813       1.35728089       0.00000000
Si       1.35793440      -1.35728280      -1.35717776       0.00000000
Si      -1.35777150      -1.35819504       1.35748715       0.00000000
Si       0.00055386       2.71362078      -2.71493993       0.00000000
Si      -2.71410948      -2.71454931       0.00024063       0.00000000
Si       2.71456560       0.00011403      -2.71445866       0.00000000
Si      -2.71298547       0.00053757       2.71679625       0.00000000
Si      -2.71441899       2.71542897      -0.00024063       0.00000000
Si      -2.71467963      -0.00084708      -2.71538682       0.00000000
