10
Lattice="16.28999089631971 0.0 0.0 0.0 16.28999089631971 0.0 0.0 0.0 34.376317263855086" Properties=species:S:1:pos:R:3:initial_magmoms:R:1 pbc="T T T"
Si       1.25584497      -1.39707927       1.40489212       0.00000000
Si      -1.35599589      -1.36138788      -1.36243734       0.00000000
Si       1.36138788       1.35746199      -1.36116542       0.00000000
Si      -1.40955741       1.27725003       1.41073610       0.00000000
Si      -0.31034079      -2.38298265       2.91459769       0.00000000
Si       2.72066850       2.69439858       0.01560686       0.00000000
Si       2.68912292      -2.72732067       0.00357514       0.00000000
Si      -2.70409113      -2.71896390      -0.00106567       0.00000000
Si      -2.71236645       2.71547784       0.01646627       0.00000000
Si       0.00003258       2.71278999      -2.72105891       0.00000000
