10
Lattice="16.28999089631971 0.0 0.0 0.0 16.28999089631971 0.0 0.0 0.0 34.376317263855086" Properties=species:S:1:pos:R:3:initial_magmoms:R:1 pbc="T T T"
Si      -1.27076661      -1.23507522      -1.54861958       0.00000000
Si       1.30411224       1.36733373      -1.59482138       0.00000000
Si      -1.51627320       1.77157008       1.31379483       0.00000000
Si       1.98412430      -1.45925820       1.23252917       0.00000000
Si       3.14959724       0.64751121       1.23689496       0.00000000
Si       0.57026403       3.33075114       1.08367963       0.00000000
Si       2.54641763       2.54295045      -0.06008984       0.00000000
Si      -3.14688591      -2.10864276      -0.43262619       0.00000000
Si      -0.73756233      -0.29947536       3.73787657       0.00000000
Si       0.13879080      -2.51232525      -2.95935568       0.00000000
