10
Lattice="16.28999089631971 0.0 0.0 0.0 16.28999089631971 0.0 0.0 0.0 34.376317263855086" Properties=species:S:1:pos:R:3:initial_magmoms:R:1 pbc="T T T"
Si      -1.87611930      -0.87356754       1.11599339       0.00000000
Si       1.27076661       1.23507522       1.54861958       0.00000000
Si       1.40955741      -1.27725003      -1.41073610       0.00000000
Si      -1.30280904       1.43822781      -1.39426983       0.00000000
Si      -0.71301330      -2.28752325       2.65986903       0.00000000
Si       2.57487885       2.60240895      -0.04620180       0.00000000
Si       2.66540238      -2.67432930      -0.00584398       0.00000000
Si      -2.72487717      -2.64665259      -0.14424311       0.00000000
Si       0.05356152      -2.63863791      -2.77317344       0.00000000
Si      -2.66020587       0.07916940      -2.77227966       0.00000000
