10
Lattice="16.28999089631971 0.0 0.0 0.0 16.28999089631971 0.0 0.0 0.0 34.376317263855086" Properties=species:S:1:pos:R:3:initial_magmoms:R:1 pbc="T T T"
Si       2.17359818       0.91961937      -0.39622165       0.00000000
Si       0.27829836      -2.22998697       0.83812946       0.00000000
Si      -1.54872288       0.29155842      -1.85793786       0.00000000
Si      -0.61872678       1.45148787       1.97712062       0.00000000
Si      -1.53647280       3.19228614       0.69921468       0.00000000
Si      -2.69172702       2.19349737      -1.07494804       0.00000000
Si       1.57231310       3.10735008      -1.35882783       0.00000000
Si       3.07888235      -0.43106598      -2.12562639       0.00000000
Si      -3.04621371      -1.52054118      -1.73504245       0.00000000
Si       1.21682946      -3.52937511      -0.89436915       0.00000000
