10
Lattice="16.28999089631971 0.0 0.0 0.0 16.28999089631971 0.0 0.0 0.0 34.376317263855086" Properties=species:S:1:pos:R:3:initial_magmoms:R:1 pbc="T T T"
Si      -1.34475579      -1.36360332       1.39019624       0.00000000
Si       1.36944396       1.35014778       1.38476477       0.00000000
Si       1.36487624      -1.27948176      -1.49717196       0.00000000
Si      -1.36238157       1.39672089      -1.53161361       0.00000000
Si      -2.69330715      -2.71500543       0.02857017       0.00000000
Si       2.71494746      -2.69576694       0.02264026       0.00000000
Si      -2.70653463       2.70614367       0.00582679       0.00000000
Si      -2.70242955      -0.00664632       2.74737400       0.00000000
Si       2.73631994       2.71891912       0.01015477       0.00000000
Si       0.01236683       2.71029910       2.74771776       0.00000000
