10
Lattice="16.28999089631971 0.0 0.0 0.0 16.28999089631971 0.0 0.0 0.0 34.376317263855086" Properties=species:S:1:pos:R:3:initial_magmoms:R:1 pbc="T T T"
Si       0.82104858       1.72766853       1.50406785       0.00000000
Si       2.10975048      -1.46013786      -0.56590325       0.00000000
Si      -1.34947989      -1.16294310       1.97516116       0.00000000
Si      -0.58109688       1.07592192      -2.62401452       0.00000000
Si       1.44466236       0.62677404       3.68672458       0.00000000
Si      -0.82067391       3.44680110       1.96560454       0.00000000
Si       0.12647556      -1.38653964       3.86420961       0.00000000
Si      -3.30005915       0.04469976       2.45973000       0.00000000
Si       1.92075390       3.66213861      -0.41296293       0.00000000
Si       4.02714864      -0.94068234       0.76899865       0.00000000
