10
Lattice="16.28999089631971 0.0 0.0 0.0 16.28999089631971 0.0 0.0 0.0 34.376317263855086" Properties=species:S:1:pos:R:3:initial_magmoms:R:1 pbc="T T T"
Si      -1.27316124      -1.38188070       1.40219843       0.00000000
Si      -0.89924058      -0.74272626      -2.09186883       0.00000000
Si       1.44068760       1.46116413       1.25465519       0.00000000
Si       1.28344023       2.20757193      -2.61906432       0.00000000
Si      -2.62358595       0.05219316       2.79373534       0.00000000
Si       0.10976202      -2.65056219       2.81483897       0.00000000
Si       0.72293391      -2.01958533      -3.28892162       0.00000000
Si       0.09653454       2.77058691       2.79209559       0.00000000
Si       2.80306917       0.06444324       2.78626880       0.00000000
Si      -2.00391435      -3.46428027       0.28248037       0.00000000
