10
Lattice="16.28999089631971 0.0 0.0 0.0 16.28999089631971 0.0 0.0 0.0 34.376317263855086" Properties=species:S:1:pos:R:3:initial_magmoms:R:1 pbc="T T T"
Si      -1.88510323      -1.12238100       0.83943576       0.00000000
Si       2.16046125      -0.81177957       0.44940185       0.00000000
Si      -0.66645648      -0.55374597      -2.21301104       0.00000000
Si      -0.32363343       2.30293359       0.65504109       0.00000000
Si       2.13043878      -0.95900859       2.83536023       0.00000000
Si      -1.16369244      -3.50293644       0.35710138       0.00000000
Si      -0.98000640       1.62414558      -3.21930953       0.00000000
Si      -2.84205928      -1.47416355      -1.98805229       0.00000000
Si      -3.78059039      -0.17477541      -0.25555369       0.00000000
Si      -1.88529057       2.97483093      -1.48990480       0.00000000
