10
Lattice="16.28999089631971 0.0 0.0 0.0 16.28999089631971 0.0 0.0 0.0 34.376317263855086" Properties=species:S:1:pos:R:3:initial_magmoms:R:1 pbc="T T T"
Si      -1.35930180       1.35553977       1.36030601       0.00000000
Si       1.35751900      -1.35858600       1.36013413       0.00000000
Si       1.34406347       1.37992590      -1.36490900       0.00000000
Si      -1.36280415      -1.37192751      -1.35773810       0.00000000
Si       2.61794146      -0.00539199      -2.72831576       0.00000000
Si      -2.67361158       0.00125433      -2.72512220       0.00000000
Si       2.71260265       2.71376739       0.00330013       0.00000000
Si      -2.71563978       2.71208952       0.00264698       0.00000000
Si      -0.00069558       2.71290402       2.71741502       0.00000000
Si       2.71385699      -0.00162900       2.71748377       0.00000000
