10
Lattice="16.28999089631971 0.0 0.0 0.0 16.28999089631971 0.0 0.0 0.0 34.376317263855086" Properties=species:S:1:pos:R:3:initial_magmoms:R:1 pbc="T T T"
Si      -1.36099692       1.35345465      -1.36284986       0.00000000
Si       1.35747828      -1.36200690      -1.36326238       0.00000000
Si       1.37565792       1.34760654       1.36068415       0.00000000
Si      -1.38501327      -1.37073834       1.36147481       0.00000000
Si       0.06641433       2.58173694       2.82848497       0.00000000
Si       2.54899404      -0.13862790       2.85842675       0.00000000
Si      -2.71274831       2.71404432      -0.00326575       0.00000000
Si       2.71616202       2.71168227      -0.00364389       0.00000000
Si      -2.71160801      -2.71671588      -0.00756279       0.00000000
Si       2.71476108      -2.71546155      -0.00495019       0.00000000
