10
Lattice="16.28999089631971 0.0 0.0 0.0 16.28999089631971 0.0 0.0 0.0 34.376317263855086" Properties=species:S:1:pos:R:3:initial_magmoms:R:1 pbc="T T T"
Si      -0.50538096      -0.41011704       2.28420443       0.00000000
Si      -2.12379735      -0.03720636      -1.14720710       0.00000000
Si       1.64172249      -1.71913257      -0.46153669       0.00000000
Si       0.48050613       2.32391511      -0.48209374       0.00000000
Si       2.74142781       0.21533751      -2.37856747       0.00000000
Si      -3.21496901       1.82493612      -0.15249343       0.00000000
Si       1.57384206      -1.11283506       3.21545938       0.00000000
Si      -1.61678576       3.33839115      -0.97780051       0.00000000
Si      -2.38972345      -1.96125084       2.34731938       0.00000000
Si      -1.60694986       1.35993807       3.32676996       0.00000000
