10
Lattice="16.28999089631971 0.0 0.0 0.0 16.28999089631971 0.0 0.0 0.0 34.376317263855086" Properties=species:S:1:pos:R:3:initial_magmoms:R:1 pbc="T T T"
Si      -0.77515965      -1.83690927       1.37554989       0.00000000
Si       1.81337022       0.80568711       1.44453976       0.00000000
Si       1.01613762      -0.14182074      -2.24037460       0.00000000
Si      -1.79182995       1.71765018      -0.06669009       0.00000000
Si      -2.16737540      -0.56084841       2.81511742       0.00000000
Si       0.53949222       2.19100500       2.80794652       0.00000000
Si       3.17689209       0.75849498      -1.66488035       0.00000000
Si       2.87220393       2.30725044       0.02162272       0.00000000
Si      -3.47818283       0.81233343       1.44773332       0.00000000
Si      -0.81057900       3.60729018       1.28813431       0.00000000
