10
Lattice="16.28999089631971 0.0 0.0 0.0 16.28999089631971 0.0 0.0 0.0 34.376317263855086" Properties=species:S:1:pos:R:3:initial_magmoms:R:1 pbc="T T T"
Si      -1.35739468       1.35725348       1.35728089       0.00000000
Si      -1.35775804      -1.35728525      -1.35734965       0.00000000
Si       1.35746362      -1.35826863       1.35734965       0.00000000
Si       1.35862021       1.35699284      -1.35776216       0.00000000
Si       2.71329661      -0.00171697       2.71414927       0.00000000
Si      -0.00140257       2.71471547       2.71411489       0.00000000
Si       2.71497448       2.71465031       0.00013751       0.00000000
Si      -2.71492954       2.71484579      -0.00034376       0.00000000
Si      -2.71499470      -2.71530258      -0.00037814       0.00000000
Si       2.71490932      -2.71549806      -0.00003438       0.00000000
