10
Lattice="16.28999089631971 0.0 0.0 0.0 16.28999089631971 0.0 0.0 0.0 34.376317263855086" Properties=species:S:1:pos:R:3:initial_magmoms:R:1 pbc="T T T"
Si      -0.01453557       2.21684094       0.72420628       0.00000000
Si      -1.59818325      -1.51345503       0.82530709       0.00000000
Si       0.09026615      -0.09671373      -2.36196370       0.00000000
Si       2.09729189      -1.01447604       0.49570677       0.00000000
Si      -1.07520679      -2.20348314      -2.36632950       0.00000000
Si      -0.50701159      -3.37559751      -0.16940659       0.00000000
Si       2.20040759       3.01089699      -0.08226257       0.00000000
Si      -0.34585788       2.09245050       3.08984825       0.00000000
Si       1.61678576      -3.33839115       0.97780051       0.00000000
Si      -1.86467136       3.35298699      -0.34781977       0.00000000
