10
Lattice="16.28999089631971 0.0 0.0 0.0 16.28999089631971 0.0 0.0 0.0 34.376317263855086" Properties=species:S:1:pos:R:3:initial_magmoms:R:1 pbc="T T T"
Si       0.90890870      -1.74599478       1.30014742       0.00000000
Si       0.88422935       1.99028844       0.95483712       0.00000000
Si       0.33132231       0.12439044      -2.36564197       0.00000000
Si      -1.83180954       0.69535494       1.40059508       0.00000000
Si      -0.14691625       1.37577195       2.97788452       0.00000000
Si      -2.46337284       2.45052166       0.02495722       0.00000000
Si       0.30430372      -0.89871930       3.45633437       0.00000000
Si       3.22298464      -1.49560119       1.05717548       0.00000000
Si       0.34585788      -2.09245050      -3.08984825       0.00000000
Si      -0.47212492       3.74856425      -0.12052344       0.00000000
