10
Lattice="10.86 0.0 0.0 0.0 10.86 0.0 0.0 0.0 10.86" Properties=species:S:1:pos:R:3:initial_magmoms:R:1 pbc="T T T"
Si      -1.27686450      -1.23672594      -1.25976000       0.00000000
Si       1.43813550       1.47827406      -1.25976000       0.00000000
Si      -1.27686450       1.47827406       1.45524000       0.00000000
Si       2.72458938      -2.36906556       0.31205124       0.00000000
Si       0.08063550      -2.59422594      -2.61726000       0.00000000
Si      -2.63436450      -2.59422594       0.09774000       0.00000000
Si      -2.63436450       0.12077406      -2.61726000       0.00000000
Si       0.21488682      -2.34932208       2.88007200       0.00000000
Si       2.79563550       0.12077406      -2.61726000       0.00000000
Si      -2.63436450       0.12077406       2.81274000       0.00000000
