10
Lattice="10.86 0.0 0.0 0.0 10.86 0.0 0.0 0.0 10.86" Properties=species:S:1:pos:R:3:initial_magmoms:R:1 pbc="T T T"
Si       1.32952464       1.15858824       1.20035580       0.00000000
Si      -1.38547536      -1.55641176       1.20035580       0.00000000
Si       1.32952464      -1.55641176      -1.51464420       0.00000000
Si       0.14492670       2.30028918       2.79457122       0.00000000
Si       2.68702464       2.51608824      -0.15714420       0.00000000
Si       2.68702464      -0.19891176       2.55785580       0.00000000
Si       0.16996986       2.64682092      -2.72387262       0.00000000
Si      -2.65030698      -0.15142098      -2.74639626       0.00000000
Si      -2.81335902      -0.05387646       2.61724914       0.00000000
Si      -0.02797536      -2.91391176       2.55785580       0.00000000
