10
Lattice="10.86 0.0 0.0 0.0 10.86 0.0 0.0 0.0 10.86" Properties=species:S:1:pos:R:3:initial_magmoms:R:1 pbc="T T T"
Si       1.28937522       1.40634828      -1.09207074       0.00000000
Si      -1.43475804      -1.45291596      -1.23146970       0.00000000
Si      -1.02267534       1.31766552       1.88644716       0.00000000
Si       0.09810924      -2.54599668      -2.27646234       0.00000000
Si      -2.61689076       0.16900332      -2.27646234       0.00000000
Si       2.81310924       0.16900332      -2.27646234       0.00000000
Si       0.09810924       2.88400332      -2.27646234       0.00000000
Si      -2.61689076      -2.54599668       0.43853766       0.00000000
Si      -2.61689076       2.88400332       0.43853766       0.00000000
Si       2.81310924       2.88400332       0.43853766       0.00000000
