10
Lattice="10.86 0.0 0.0 0.0 10.86 0.0 0.0 0.0 10.86" Properties=species:S:1:pos:R:3:initial_magmoms:R:1 pbc="T T T"
Si      -1.39796436       1.25814186      -1.30107144       0.00000000
Si       1.31703564       1.25814186       1.41392856       0.00000000
Si      -1.39796436      -1.45685814       1.41392856       0.00000000
Si       1.21019496      -1.80127218      -1.43196702       0.00000000
Si       0.19625106       2.40680406      -2.56816194       0.00000000
Si       2.60415198      -2.66932284       0.11582190       0.00000000
Si       2.67853212       2.68246344      -0.09921696       0.00000000
Si      -2.75546436       2.61564186       0.05642856       0.00000000
Si      -0.04046436       2.61564186       2.77142856       0.00000000
Si      -2.75546436      -0.09935814      -2.65857144       0.00000000
