10
Lattice="10.86 0.0 0.0 0.0 10.86 0.0 0.0 0.0 10.86" Properties=species:S:1:pos:R:3:initial_magmoms:R:1 pbc="T T T"
Si      -1.53040206      -1.14170094       1.12078458       0.00000000
Si       1.18459794       1.57329906       1.12078458       0.00000000
Si       1.18459794      -1.14170094      -1.59421542       0.00000000
Si      -0.17290206      -2.49920094       2.47828458       0.00000000
Si       2.54209794       0.21579906       2.47828458       0.00000000
Si       2.54209794      -2.49920094      -0.23671542       0.00000000
Si      -0.14492670      -2.30028918      -2.79457122       0.00000000
Si      -2.95828572      -2.35416564      -0.17732208       0.00000000
Si      -2.88790206       0.21579906       2.47828458       0.00000000
Si      -0.17290206       2.93079906       2.47828458       0.00000000
