10
Lattice="10.86 0.0 0.0 0.0 10.86 0.0 0.0 0.0 10.86" Properties=species:S:1:pos:R:3:initial_magmoms:R:1 pbc="T T T"
Si      -1.50453354       1.14322134      -1.12808250       0.00000000
Si       1.21046646      -1.57177866      -1.12808250       0.00000000
Si       1.21046646       1.14322134       1.58691750       0.00000000
Si      -0.14703354       2.50072134      -2.48558250       0.00000000
Si       2.56796646      -0.21427866      -2.48558250       0.00000000
Si       2.56796646       2.50072134       0.22941750       0.00000000
Si       0.05091168      -2.79854598      -2.33731092       0.00000000
Si      -2.86203354       2.50072134       0.22941750       0.00000000
Si      -0.14703354       2.50072134       2.94441750       0.00000000
Si       2.56796646      -2.92927866       0.22941750       0.00000000
