10
Lattice="10.86 0.0 0.0 0.0 10.86 0.0 0.0 0.0 10.86" Properties=species:S:1:pos:R:3:initial_magmoms:R:1 pbc="T T T"
Si       1.41043164      -1.25659974       1.28553078       0.00000000
Si      -1.30456836      -1.25659974      -1.42946922       0.00000000
Si      -1.30456836       1.45840026       1.28553078       0.00000000
Si       0.05293164      -2.61409974       2.64303078       0.00000000
Si      -2.66206836      -2.61409974      -0.07196922       0.00000000
Si      -2.66206836       0.10090026       2.64303078       0.00000000
Si       2.76793164      -2.61409974      -0.07196922       0.00000000
Si       0.05293164      -2.61409974      -2.78696922       0.00000000
Si       2.76793164       0.10090026       2.64303078       0.00000000
Si      -0.00588612       2.69898150      -2.73821868       0.00000000
