10
Lattice="10.86 0.0 0.0 0.0 10.86 0.0 0.0 0.0 10.86" Properties=species:S:1:pos:R:3:initial_magmoms:R:1 pbc="T T T"
Si       1.35592530      -1.29624960       1.35130980       0.00000000
Si      -1.35907470       1.41875040       1.35130980       0.00000000
Si       1.35592530       1.41875040      -1.36369020       0.00000000
Si      -0.04689348      -2.63432106      -2.69841678       0.00000000
Si      -0.00157470      -2.65374960       2.70880980       0.00000000
Si       2.71342530      -2.65374960      -0.00619020       0.00000000
Si       2.71342530       0.06125040       2.70880980       0.00000000
Si      -2.71657470       0.06125040       2.70880980       0.00000000
Si       2.71342530       0.06125040      -2.72119020       0.00000000
Si      -2.77539246      -0.05566836      -2.67243966       0.00000000
