10
Lattice="16.28999089631971 0.0 0.0 0.0 16.28999089631971 0.0 0.0 0.0 34.61538196595647" Properties=species:S:1:pos:R:3:initial_magmoms:R:1 pbc="T T T"
Si       1.42392519       0.09213624       1.83136242       0.00000000
Si       1.35000117       0.39459267      -1.88782014       0.00000000
Si      -1.62241884       1.67198931       0.34116940       0.00000000
Si      -0.83284254      -2.36345094      -0.02824617       0.00000000
Si       2.91638241      -1.52976132       0.96403893       0.00000000
Si      -2.72537564       1.50169365      -1.78878548       0.00000000
Si       3.44702916      -0.37300842      -0.99792740       0.00000000
Si       0.01285281      -0.71252460      -3.56483249       0.00000000
Si      -2.89167048       0.81928926       2.22677415       0.00000000
Si      -2.87870364      -2.10732327      -1.34286988       0.00000000
