10
Lattice="16.28999089631971 0.0 0.0 0.0 16.28999089631971 0.0 0.0 0.0 34.61538196595647" Properties=species:S:1:pos:R:3:initial_magmoms:R:1 pbc="T T T"
Si       1.62241884      -1.67198931      -0.34116940       0.00000000
Si      -1.10295680      -0.17029566      -2.12995487       0.00000000
Si       0.33997230       2.30219144       0.64516185       0.00000000
Si      -1.26925164      -0.85270005       1.88560476       0.00000000
Si      -2.64929876      -1.77689691      -1.51622381       0.00000000
Si      -3.28633550      -1.16071137       0.69199649       0.00000000
Si       3.04634403      -1.57985307       1.49019303       0.00000000
Si      -1.55955084       2.87662571       1.97068941       0.00000000
Si       2.97242001      -1.27739664      -2.22898954       0.00000000
Si      -1.98809513       1.86446285      -2.85002445       0.00000000
