10
Lattice="16.28999089631971 0.0 0.0 0.0 16.28999089631971 0.0 0.0 0.0 34.61538196595647" Properties=species:S:1:pos:R:3:initial_magmoms:R:1 pbc="T T T"
Si      -1.64392883       1.52664993       0.75921960       0.00000000
Si       1.24045092      -0.86138262       1.82537396       0.00000000
Si      -1.14281585      -1.91840814      -0.86102349       0.00000000
Si       1.25257068       0.99088812      -1.81993934       0.00000000
Si       2.47547727      -2.59630020       0.74322728       0.00000000
Si       1.92236661      -0.95364918      -3.03026685       0.00000000
Si      -0.51603788      -1.84461444       3.30320929       0.00000000
Si      -2.23442504      -1.30057731      -2.87782062       0.00000000
Si      -3.16919411       2.22687558      -0.91945429       0.00000000
Si      -3.21632108       0.61309044       2.31455881       0.00000000
