10
Lattice="16.28999089631971 0.0 0.0 0.0 16.28999089631971 0.0 0.0 0.0 34.61538196595647" Properties=species:S:1:pos:R:3:initial_magmoms:R:1 pbc="T T T"
Si      -1.22639265       1.48535478      -1.38222759       0.00000000
Si       1.50851916      -1.21569664      -1.38786990       0.00000000
Si      -0.84439215      -1.83203530       1.39718144       0.00000000
Si       0.53095626       1.65447756       1.76760085       0.00000000
Si       2.83444371      -2.42812029       0.11720775       0.00000000
Si       2.87282295       1.60590078       1.79979318       0.00000000
Si      -2.56233555       0.13097160      -2.75213210       0.00000000
Si       0.14929785      -2.58553970      -2.75292825       0.00000000
Si      -2.68828983      -2.71118447       0.11886929       0.00000000
Si      -2.56305231       2.86545987       0.11679236       0.00000000
