10
Lattice="16.28999089631971 0.0 0.0 0.0 16.28999089631971 0.0 0.0 0.0 34.61538196595647" Properties=species:S:1:pos:R:3:initial_magmoms:R:1 pbc="T T T"
Si      -2.07609534       0.50720870      -0.97930432       0.00000000
Si       0.51929262       2.27599645       0.27823860       0.00000000
Si       1.73765430      -0.51402867      -1.56534306       0.00000000
Si      -0.25565526      -1.94316961       1.37717374       0.00000000
Si      -1.59280362      -3.05028688      -0.29983861       0.00000000
Si      -3.37173678      -1.45116274      -0.68483110       0.00000000
Si       2.43758673       1.55648344      -2.38974346       0.00000000
Si      -1.56825459       1.12481473      -3.32737084       0.00000000
Si       2.74126491       2.69489380      -0.32580016       0.00000000
Si       3.70099026      -1.13362177      -0.35418479       0.00000000
