10
Lattice="16.28999089631971 0.0 0.0 0.0 16.28999089631971 0.0 0.0 0.0 34.61538196595647" Properties=species:S:1:pos:R:3:initial_magmoms:R:1 pbc="T T T"
Si      -1.35343836       1.35242838       1.35941604       0.00000000
Si       1.35208629      -1.35777150       1.36073143       0.00000000
Si       1.35702216       1.35640314      -1.35730450       0.00000000
Si      -1.35762489      -1.35809730      -1.35709681       0.00000000
Si      -0.00029322      -2.70140980       2.72502824       0.00000000
Si      -0.00011403       2.71379997      -2.71440131       0.00000000
Si       2.71339272      -0.00008145      -2.71495516       0.00000000
Si      -2.71495656       2.71438641       0.00141923       0.00000000
Si       2.71542897       2.71409319      -0.00135000       0.00000000
Si      -2.71534752      -0.00063531      -2.71460900       0.00000000
