10
Lattice="16.28999089631971 0.0 0.0 0.0 16.28999089631971 0.0 0.0 0.0 34.61538196595647" Properties=species:S:1:pos:R:3:initial_magmoms:R:1 pbc="T T T"
Si       0.06605595      -1.08672219       2.06518946       0.00000000
Si       2.34186669      -0.04857678       0.03219232       0.00000000
Si      -0.53095626      -1.65447756      -1.76760085       0.00000000
Si      -1.42126992       2.15532990      -0.22731934       0.00000000
Si       2.53472400       1.41134931      -1.77542393       0.00000000
Si      -1.83185937      -2.49953760       1.84642012       0.00000000
Si      -1.75734891      -0.16912278      -3.14982844       0.00000000
Si      -3.09400857       1.21098231      -1.65080849       0.00000000
Si      -1.37534841      -3.48651286      -0.37041941       0.00000000
Si      -0.69489882       0.16980696       3.84189416       0.00000000
