10
Lattice="16.28999089631971 0.0 0.0 0.0 16.28999089631971 0.0 0.0 0.0 34.61538196595647" Properties=species:S:1:pos:R:3:initial_magmoms:R:1 pbc="T T T"
Si       1.85161914       0.97217091       1.09848515       0.00000000
Si       1.34327340      -1.24434423      -1.49753149       0.00000000
Si      -1.04640444      -1.63181817       1.42677761       0.00000000
Si      -1.35464382       1.47185037      -1.48230071       0.00000000
Si      -1.03275342       2.20229397       2.50660506       0.00000000
Si      -2.71914309      -2.57616576       0.00328846       0.00000000
Si       2.90958948      -2.37579876      -0.12132698       0.00000000
Si       1.13396319       1.49314140       3.26942465       0.00000000
Si      -0.00071676      -2.60348409      -2.86698600       0.00000000
Si       2.68136658       2.84990292      -0.11132313       0.00000000
