10
Lattice="16.28999089631971 0.0 0.0 0.0 16.28999089631971 0.0 0.0 0.0 34.61538196595647" Properties=species:S:1:pos:R:3:initial_magmoms:R:1 pbc="T T T"
Si      -1.23696486      -1.29073815      -1.51508150       0.00000000
Si       2.25943929      -0.72224973      -0.08030773       0.00000000
Si      -0.28704609      -1.19358459       2.06370100       0.00000000
Si      -0.67056156       2.24230221      -0.64779262       0.00000000
Si      -2.44553625      -0.39045501       2.41345501       0.00000000
Si       3.06866133       1.05619473       1.28762370       0.00000000
Si       0.10616193      -3.36315195       1.23583906       0.00000000
Si       0.25063794       3.40692318       1.11233131       0.00000000
Si      -1.42692255      -3.41514963      -0.56599643       0.00000000
Si       2.92081329      -0.40348701      -2.35135498       0.00000000
