10
Lattice="16.28999089631971 0.0 0.0 0.0 16.28999089631971 0.0 0.0 0.0 34.61538196595647" Properties=species:S:1:pos:R:3:initial_magmoms:R:1 pbc="T T T"
Si      -2.15849016       0.80312958       0.34975401       0.00000000
Si       0.39320802      -2.16956736      -0.82786194       0.00000000
Si       0.28704609       1.19358459      -2.06370100       0.00000000
Si       0.82675008      -0.36561276       2.26488571       0.00000000
Si      -1.28335878       2.51755434       1.72363929       0.00000000
Si       2.54648538       0.47133486      -2.14400873       0.00000000
Si       2.70194085      -1.87082505      -1.34965450       0.00000000
Si      -3.04194573      -1.05046065       1.51213919       0.00000000
Si      -1.13987646      -2.22156504      -2.62969742       0.00000000
Si      -0.54949428       1.13956695       3.44201704       0.00000000
