10
Lattice="16.28999089631971 0.0 0.0 0.0 16.28999089631971 0.0 0.0 0.0 34.61538196595647" Properties=species:S:1:pos:R:3:initial_magmoms:R:1 pbc="T T T"
Si       0.88513833      -2.03475851       0.72006958       0.00000000
Si      -1.49111397       1.19053836       1.37724297       0.00000000
Si       2.07026189       1.06025094      -0.40963866       0.00000000
Si      -1.50432516      -0.14817384      -1.83319704       0.00000000
Si      -1.89649062       2.14920486      -1.89557399       0.00000000
Si       1.84443362      -2.64985262      -1.44096993       0.00000000
Si      -1.53014481       3.21926238       0.19395009       0.00000000
Si       3.14007506      -0.69148118      -1.73544314       0.00000000
Si      -3.39047910      -1.29613340      -0.83471579       0.00000000
Si      -3.63140820       0.21419721       0.95022738       0.00000000
