10
Lattice="16.28999089631971 0.0 0.0 0.0 16.28999089631971 0.0 0.0 0.0 34.61538196595647" Properties=species:S:1:pos:R:3:initial_magmoms:R:1 pbc="T T T"
Si      -1.50853545      -1.12449870       1.35151823       0.00000000
Si      -0.86302791       0.76305618      -2.08630485       0.00000000
Si       1.18780164       1.62730584       1.41289480       0.00000000
Si       1.76875191      -1.62285867      -0.58763105       0.00000000
Si       1.39388643       1.87813926      -2.02271636       0.00000000
Si       3.02513445       0.07885989      -1.85905474       0.00000000
Si      -0.01811448      -2.26204569       2.76149006       0.00000000
Si      -2.26947393      -2.93625621       0.04790312       0.00000000
Si       2.68535763       0.44338122       2.76614584       0.00000000
Si      -3.00423438       1.78570980      -1.73194699       0.00000000
