10
Lattice="16.28999089631971 0.0 0.0 0.0 16.28999089631971 0.0 0.0 0.0 34.61538196595647" Properties=species:S:1:pos:R:3:initial_magmoms:R:1 pbc="T T T"
Si       1.35728280       1.35658233      -1.35751219       0.00000000
Si      -1.35760860       1.35751086       1.35668142       0.00000000
Si       1.35855342      -1.35819504       1.35730450       0.00000000
Si      -1.35896067      -1.35941679      -1.35751219       0.00000000
Si      -0.00221544       2.71419093       2.71447054       0.00000000
Si      -2.71439293       2.71440270      -0.00031154       0.00000000
Si       2.71518462       2.71482624      -0.00062308       0.00000000
Si      -2.71497122      -2.71513575      -0.00010385       0.00000000
Si      -2.71576454       0.00115659       2.71436669       0.00000000
Si       2.71642266       0.00037467       2.71395131       0.00000000
