10
Lattice="16.28999089631971 0.0 0.0 0.0 16.28999089631971 0.0 0.0 0.0 34.61538196595647" Properties=species:S:1:pos:R:3:initial_magmoms:R:1 pbc="T T T"
Si      -1.33257087      -1.36759437      -1.37357374       0.00000000
Si       1.35413883      -1.34910522       1.38053144       0.00000000
Si       1.38165264       1.34842104      -1.36796604       0.00000000
Si      -1.43202132       1.41828885       1.46599686       0.00000000
Si      -2.68187157      -2.72715777       0.00955385       0.00000000
Si      -2.70557352       2.71376739      -0.01446924       0.00000000
Si      -2.69249265      -0.01120752      -2.73447824       0.00000000
Si       0.02332728       2.70368388      -2.73527440       0.00000000
Si       2.74494645      -2.70242955      -0.02014616       0.00000000
Si       0.02614545      -2.72502378      -2.73499747       0.00000000
