10
Lattice="16.28999089631971 0.0 0.0 0.0 16.28999089631971 0.0 0.0 0.0 34.61538196595647" Properties=species:S:1:pos:R:3:initial_magmoms:R:1 pbc="T T T"
Si      -1.99765899      -1.08194922       0.53169256       0.00000000
Si       2.19786309      -0.77499675       0.26574244       0.00000000
Si       0.20313630       1.97218143       1.27350061       0.00000000
Si      -0.17661618       1.00100421      -2.14331642       0.00000000
Si       2.08389825       0.81796977      -2.76165133       0.00000000
Si       2.64140721      -1.34972424      -1.96802403       0.00000000
Si      -1.26379449      -2.45993661       2.25007032       0.00000000
Si      -3.32356725       0.78692103       1.04908897       0.00000000
Si       1.16826993       3.48255765      -0.25234628       0.00000000
Si      -1.99612773       2.51644662       1.88640091       0.00000000
