10
Lattice="16.28999089631971 0.0 0.0 0.0 16.28999089631971 0.0 0.0 0.0 34.61538196595647" Properties=species:S:1:pos:R:3:initial_magmoms:R:1 pbc="T T T"
Si      -2.19926403       0.54426519       0.61290030       0.00000000
Si       0.96513363       1.51037622      -1.52584689       0.00000000
Si      -0.20313630      -1.97218143      -1.27350061       0.00000000
Si       1.24514244       0.00509877       2.01243559       0.00000000
Si      -0.71744418       1.30386789      -3.11960920       0.00000000
Si      -0.05186736       1.69699446       3.03085531       0.00000000
Si       1.99472679      -2.74717818      -1.00775818       0.00000000
Si      -0.37975248      -0.97117722      -3.41681703       0.00000000
Si       3.45864393      -0.86050296      -0.79030423       0.00000000
Si      -2.13014556       0.57102966       2.98294759       0.00000000
