10
Lattice="16.28999089631971 0.0 0.0 0.0 16.28999089631971 0.0 0.0 0.0 34.61538196595647" Properties=species:S:1:pos:R:3:initial_magmoms:R:1 pbc="T T T"
Si       1.35610992       1.35788280      -1.35730450       0.00000000
Si       1.35708732      -1.35703845       1.35740835       0.00000000
Si      -1.35742941       1.35782882       1.35692373       0.00000000
Si      -1.35891180      -1.35654975      -1.35792758       0.00000000
Si       2.71327869      -0.00022806       2.71377823       0.00000000
Si      -2.71448089       0.00027693       2.71384746       0.00000000
Si      -2.71312882      -0.00006516      -2.71526669       0.00000000
Si      -0.00021177       2.71446527       2.71426285       0.00000000
Si       2.71485882      -2.71448415      -0.00051923       0.00000000
Si      -2.71471873      -2.71490769      -0.00020769       0.00000000
