10
Lattice="16.28999089631971 0.0 0.0 0.0 16.28999089631971 0.0 0.0 0.0 34.61538196595647" Properties=species:S:1:pos:R:3:initial_magmoms:R:1 pbc="T T T"
Si       1.35619137       1.35681039       1.35636988       0.00000000
Si      -1.35708732       1.35703845      -1.35740835       0.00000000
Si       1.35777150      -1.35744570      -1.35792758       0.00000000
Si      -1.35962856      -1.35808101       1.35716604       0.00000000
Si       2.71463076      -0.00055386      -2.71415900       0.00000000
Si      -2.71451673       2.71486727      -0.00048462       0.00000000
Si      -0.00097740       2.71492125      -2.71471285       0.00000000
Si      -2.71502172      -2.71476108      -0.00062308       0.00000000
Si       2.71461447       2.71547023       0.00031154       0.00000000
Si      -0.00013032      -2.71568961      -2.71481669       0.00000000
