10
Lattice="16.28999089631971 0.0 0.0 0.0 16.28999089631971 0.0 0.0 0.0 34.61538196595647" Properties=species:S:1:pos:R:3:initial_magmoms:R:1 pbc="T T T"
Si       0.39161160       1.61988055       1.68521620       0.00000000
Si      -0.55439757       0.69388884      -2.22919723       0.00000000
Si      -1.53736875      -1.49753970       1.13209670       0.00000000
Si       2.10821922      -1.54168560      -0.03160386       0.00000000
Si       0.42228567      -2.53905714       2.09973563       0.00000000
Si       2.35494756       1.00028745       2.89637447       0.00000000
Si       1.09154403       3.69039266       0.86081580       0.00000000
Si      -3.21452199      -2.46361815      -0.22995011       0.00000000
Si      -2.45778633       2.27174868      -2.29365111       0.00000000
Si      -1.56209697      -1.12728429      -3.60318635       0.00000000
