10
Lattice="16.28999089631971 0.0 0.0 0.0 16.28999089631971 0.0 0.0 0.0 34.61538196595647" Properties=species:S:1:pos:R:3:initial_magmoms:R:1 pbc="T T T"
Si       1.89841705       0.71503652      -1.21260776       0.00000000
Si      -1.28447694      -1.65143526      -1.18074415       0.00000000
Si      -1.28349954       1.38825335       1.49279957       0.00000000
Si       1.41385471      -1.33611269       1.46875571       0.00000000
Si       2.65935553       2.52679403       0.09100735       0.00000000
Si      -2.67013692       2.64079145       0.10177620       0.00000000
Si      -0.84463487       3.49182992      -1.20589009       0.00000000
Si      -2.69883990      -2.78634327       0.20436241       0.00000000
Si      -2.64355164       0.03384085       2.85399484       0.00000000
Si       0.07139907      -2.68005102       2.85503330       0.00000000
