10
Lattice="16.28999089631971 0.0 0.0 0.0 16.28999089631971 0.0 0.0 0.0 34.61538196595647" Properties=species:S:1:pos:R:3:initial_magmoms:R:1 pbc="T T T"
Si      -1.36045935       1.35586720       1.36100835       0.00000000
Si       1.35700587      -1.36023964       1.36107758       0.00000000
Si       1.36391283       1.34483887      -1.38153528       0.00000000
Si      -1.36013355      -1.35160315      -1.38531875       0.00000000
Si       2.71518462       2.71271017      -0.00031154       0.00000000
Si      -0.11719026       2.67372820      -2.75156094       0.00000000
Si      -2.71471221       2.71530028       0.00709616       0.00000000
Si      -2.71459818      -2.71672144      -0.00034615       0.00000000
Si       2.71538010      -2.71628161       0.00533077       0.00000000
Si      -0.00148239       2.71419256       2.71834746       0.00000000
