10
Lattice="16.28999089631971 0.0 0.0 0.0 16.28999089631971 0.0 0.0 0.0 34.61538196595647" Properties=species:S:1:pos:R:3:initial_magmoms:R:1 pbc="T T T"
Si       0.28234480      -2.30220054      -0.34553094       0.00000000
Si      -1.91065477       0.80301555       1.14400440       0.00000000
Si      -0.18442398       0.83882097      -2.28742033       0.00000000
Si       2.23633030       0.58911156       0.91353506       0.00000000
Si      -0.67443532       2.88769572       1.44405070       0.00000000
Si       2.52423976       2.28208239      -0.63910415       0.00000000
Si       2.50296502      -2.37001581      -1.05881590       0.00000000
Si       2.10030880       1.18110645      -2.68795514       0.00000000
Si      -0.75610524      -1.10449458      -3.50643631       0.00000000
Si       0.24245059      -3.41694642       1.68802004       0.00000000
