10
Lattice="16.28999089631971 0.0 0.0 0.0 16.28999089631971 0.0 0.0 0.0 34.61538196595647" Properties=species:S:1:pos:R:3:initial_magmoms:R:1 pbc="T T T"
Si       1.35591444       1.35789205      -1.35636988       0.00000000
Si       1.35503478      -1.35734175       1.36069681       0.00000000
Si      -1.35951453      -1.35730737      -1.35643912       0.00000000
Si      -1.36368477       1.35764770       1.36107758       0.00000000
Si       2.71329498      -2.71463143      -0.00013846       0.00000000
Si       2.71419093      -0.00087966      -2.71415900       0.00000000
Si       2.71318095       2.71559839      -0.00045000       0.00000000
Si      -0.00099369      -2.71529932      -2.71405516       0.00000000
Si      -0.00237834       2.71533775      -2.71460900       0.00000000
Si      -2.71616202      -0.00024924      -2.71443592       0.00000000
