10
Lattice="16.28999089631971 0.0 0.0 0.0 16.28999089631971 0.0 0.0 0.0 34.61538196595647" Properties=species:S:1:pos:R:3:initial_magmoms:R:1 pbc="T T T"
Si      -1.26306144       1.29011913       1.43773685       0.00000000
Si       1.17312435       1.62160434      -1.42173557       0.00000000
Si       1.46777787      -1.45026612       1.41511568       0.00000000
Si      -1.91974392      -0.95202018      -1.39968556       0.00000000
Si       1.86510726       0.34608105      -3.22066336       0.00000000
Si      -0.48622392       0.14822271      -3.72892130       0.00000000
Si      -2.71456560       2.62993905      -0.11466352       0.00000000
Si      -2.59687035      -0.09726759       2.80059712       0.00000000
Si       0.11826540       2.61192231       2.79973173       0.00000000
Si       2.85708681       2.61386082      -0.05107502       0.00000000
