10
Lattice="16.28999089631971 0.0 0.0 0.0 16.28999089631971 0.0 0.0 0.0 34.61538196595647" Properties=species:S:1:pos:R:3:initial_magmoms:R:1 pbc="T T T"
Si       1.77099993       0.82715733      -1.29028908       0.00000000
Si      -0.88733259      -1.85069061      -1.28014677       0.00000000
Si       1.26107406      -0.21530493       2.09347024       0.00000000
Si      -1.94530293       1.49727906      -0.06033464       0.00000000
Si      -1.15953849       0.14196735       2.49878197       0.00000000
Si       0.27525213       2.02168674      -2.67082052       0.00000000
Si      -1.08018990      -3.31061670       0.52746949       0.00000000
Si      -2.45364867      -0.71923608      -2.65635128       0.00000000
Si       0.87961113       1.87470207       3.15062460       0.00000000
Si      -1.11555549       3.37501107      -1.27014292       0.00000000
