10
Lattice="16.28999089631971 0.0 0.0 0.0 16.28999089631971 0.0 0.0 0.0 34.61538196595647" Properties=species:S:1:pos:R:3:initial_magmoms:R:1 pbc="T T T"
Si       1.22171742       1.95071121      -0.13015391       0.00000000
Si       0.14494842      -1.30968342       1.91340092       0.00000000
Si      -2.10266433      -0.15252327      -0.98920432       0.00000000
Si      -0.43350948      -3.29330043       0.68701187       0.00000000
Si      -2.44310904      -2.47761126      -0.36335787       0.00000000
Si       2.48564223      -0.88523118       2.29950111       0.00000000
Si      -0.01725111       3.03759630      -1.79640087       0.00000000
Si      -3.47890869       1.35265644       0.18792701       0.00000000
Si       1.36044306       2.95929027       2.01963559       0.00000000
Si       3.51732051       2.08033074      -0.69341572       0.00000000
