10
Lattice="16.28999089631971 0.0 0.0 0.0 16.28999089631971 0.0 0.0 0.0 34.61538196595647" Properties=species:S:1:pos:R:3:initial_magmoms:R:1 pbc="T T T"
Si      -1.26644976       1.33924977       1.52592997       0.00000000
Si       0.94731237       1.78396677      -1.29924897       0.00000000
Si      -1.01783178      -1.90553904      -1.16885276       0.00000000
Si       1.45150416      -1.33981992       1.55240036       0.00000000
Si       2.71456560      -2.62993905       0.11466352       0.00000000
Si       2.74701528       2.68848531       0.15465469       0.00000000
Si      -2.77135254       2.67522525       0.01643885       0.00000000
Si       0.79482168      -3.58195923      -1.28502204       0.00000000
Si      -2.59222770      -0.01247814       2.91318371       0.00000000
Si      -0.93804336       3.62906991      -1.11929904       0.00000000
