10
Lattice="16.28999089631971 0.0 0.0 0.0 16.28999089631971 0.0 0.0 0.0 34.61538196595647" Properties=species:S:1:pos:R:3:initial_magmoms:R:1 pbc="T T T"
Si      -1.35058761      -1.33429761       1.35965835       0.00000000
Si      -1.35334062       1.35645201      -1.35488142       0.00000000
Si       1.35883035      -1.35648459      -1.35526219       0.00000000
Si       1.35127179       1.35500220       1.38115451       0.00000000
Si       0.14516019      -2.52882702       2.74018978       0.00000000
Si      -2.71277370       0.00001629      -2.71239362       0.00000000
Si       0.00154755      -2.71461447      -2.71215131       0.00000000
Si       0.00192222       2.71526607      -2.71201285       0.00000000
Si       2.71728603      -0.00003258      -2.71208208       0.00000000
Si      -2.71388142       2.71655298       0.01183847       0.00000000
