10
Lattice="16.28999089631971 0.0 0.0 0.0 16.28999089631971 0.0 0.0 0.0 34.61538196595647" Properties=species:S:1:pos:R:3:initial_magmoms:R:1 pbc="T T T"
Si       1.35334062      -1.35645201       1.35488142       0.00000000
Si       1.35526284       1.35881406      -1.35713142       0.00000000
Si      -1.35943308      -1.35643572      -1.35751219       0.00000000
Si      -1.36054080       1.36010097       1.36671989       0.00000000
Si       0.00275301      -2.69074962       2.71453977       0.00000000
Si       2.71217097      -2.71293660      -0.00038077       0.00000000
Si       2.71277370       0.00141723      -2.71450516       0.00000000
Si      -0.00218286      -2.71406061      -2.71474746       0.00000000
Si       2.71236645       2.71669959      -0.00034615       0.00000000
Si      -2.71604799      -2.71334385      -0.00031154       0.00000000
