10
Lattice="16.28999089631971 0.0 0.0 0.0 16.28999089631971 0.0 0.0 0.0 34.61538196595647" Properties=species:S:1:pos:R:3:initial_magmoms:R:1 pbc="T T T"
Si      -1.76085126      -1.41467247      -0.53016949       0.00000000
Si       0.67070817       2.29508181      -0.25386935       0.00000000
Si       1.78171875      -1.55821995       0.50985025       0.00000000
Si      -1.01522538       1.29771027       1.87747014       0.00000000
Si       1.02973977       1.39610187      -2.41612040       0.00000000
Si      -0.25743087      -3.29095467      -0.14199238       0.00000000
Si       2.74250295       1.62675198       0.96867739       0.00000000
Si      -1.22287401      -0.86222970       2.98263605       0.00000000
Si       0.89919171      -1.85546358       2.73444363       0.00000000
Si      -1.04319531      -1.93564296      -2.70110900       0.00000000
