10
Lattice="16.28999089631971 0.0 0.0 0.0 16.28999089631971 0.0 0.0 0.0 34.61538196595647" Properties=species:S:1:pos:R:3:initial_magmoms:R:1 pbc="T T T"
Si      -0.03650589      -2.09313468       1.07131206       0.00000000
Si      -1.29700980       1.69189569       1.01841972       0.00000000
Si      -1.24514244      -0.00509877      -2.01243559       0.00000000
Si       2.23792020       0.40198833      -0.74876575       0.00000000
Si      -3.37528800       0.56593089       0.97051201       0.00000000
Si       2.12727852      -2.83058298       0.79584269       0.00000000
Si       2.21350149      -0.86560173      -2.80273981       0.00000000
Si      -3.44440647       0.53916642      -1.39953529       0.00000000
Si      -0.28000881       1.50527745      -3.53828248       0.00000000
Si       3.76709508      -0.83114838       0.72855035       0.00000000
