10
Lattice="16.28999089631971 0.0 0.0 0.0 16.28999089631971 0.0 0.0 0.0 34.61538196595647" Properties=species:S:1:pos:R:3:initial_magmoms:R:1 pbc="T T T"
Si      -0.94731237      -1.78396677       1.29924897       0.00000000
Si       1.79970291       0.90451854       1.45390366       0.00000000
Si       1.79074341      -1.06385103      -1.40088529       0.00000000
Si      -1.88535573       1.84510314       0.17994993       0.00000000
Si      -2.21376213      -0.44471700       2.82517894       0.00000000
Si       0.53462151       2.28068145       2.86152511       0.00000000
Si       3.28013811       2.11361121       0.12032313       0.00000000
Si      -0.78806133       3.59261289       1.45104789       0.00000000
Si      -3.71866491       0.89125848       1.31568783       0.00000000
Si       2.94037758      -2.79230148      -0.00782308       0.00000000
