10
Lattice="16.28999089631971 0.0 0.0 0.0 16.28999089631971 0.0 0.0 0.0 34.61538196595647" Properties=species:S:1:pos:R:3:initial_magmoms:R:1 pbc="T T T"
Si      -2.16378441       0.73744830       0.27546936       0.00000000
Si      -0.13872564      -1.00857906      -2.14978950       0.00000000
Si       0.66448539      -1.87418079       1.44446608       0.00000000
Si       1.63981656       1.99943460      -0.06729234       0.00000000
Si       1.17419949       1.32765129       2.35858960       0.00000000
Si       3.31279956       0.56866761      -1.14763902       0.00000000
Si       2.15687745      -0.87895953      -2.71305131       0.00000000
Si       0.11064168       3.23257131      -1.54460844       0.00000000
Si      -2.12727852       2.83058298      -0.79584269       0.00000000
Si      -1.36044306      -2.95929027      -2.01963559       0.00000000
