10
Lattice="16.28999089631971 0.0 0.0 0.0 16.28999089631971 0.0 0.0 0.0 34.61538196595647" Properties=species:S:1:pos:R:3:initial_magmoms:R:1 pbc="T T T"
Si      -1.32622789      -1.36104579       1.35638027       0.00000000
Si       1.30470878      -1.41990156      -1.32714064       0.00000000
Si       1.38786271       1.35786924       1.35354181       0.00000000
Si      -1.30436671       1.35246096      -1.49636495       0.00000000
Si       0.69840801       1.98435006      -2.75300237       0.00000000
Si       2.39780362       0.16687476      -2.72205620       0.00000000
Si      -2.67834676       2.71094922      -0.02670578       0.00000000
Si      -2.68509082      -0.00591327       2.71333862       0.00000000
Si      -2.69367565      -2.71166598      -0.03017425       0.00000000
Si       0.02935873       2.70946683       2.71347708       0.00000000
