10
Lattice="16.28999089631971 0.0 0.0 0.0 16.28999089631971 0.0 0.0 0.0 34.61538196595647" Properties=species:S:1:pos:R:3:initial_magmoms:R:1 pbc="T T T"
Si       1.35710361       1.35620487      -1.35782373       0.00000000
Si       1.35718506      -1.35721764       1.35713142       0.00000000
Si      -1.35850455      -1.35803214      -1.35685450       0.00000000
Si      -1.35852084       1.35799195       1.35761604       0.00000000
Si       2.71428867       0.00066789       2.71391669       0.00000000
Si       2.71547784       0.00016290      -2.71357054       0.00000000
Si       2.71469592      -2.71461447      -0.00024231       0.00000000
Si       0.00099369       2.71529932       2.71405516       0.00000000
Si       2.71518462       2.71441966      -0.00010385       0.00000000
Si      -2.71516833       2.71505008      -0.00038077       0.00000000
