10
Lattice="16.28999089631971 0.0 0.0 0.0 16.28999089631971 0.0 0.0 0.0 34.61538196595647" Properties=species:S:1:pos:R:3:initial_magmoms:R:1 pbc="T T T"
Si      -0.35903160       0.89897994       2.16225104       0.00000000
Si       1.61456706       1.23474942      -1.32338141       0.00000000
Si      -1.24318764      -1.45401282      -1.49479687       0.00000000
Si      -1.02973977      -1.39610187       2.41612040       0.00000000
Si       1.71276318       0.23065011       3.38479779       0.00000000
Si       0.15252327       2.60532486      -2.84908984       0.00000000
Si      -2.59732647      -0.10490760      -2.87532831       0.00000000
Si      -2.07293508      -3.33174483      -0.28498860       0.00000000
Si       3.48316038       2.03092317       0.16715777       0.00000000
Si       0.14761998      -2.80733715      -2.89547447       0.00000000
