10
Lattice="16.28999089631971 0.0 0.0 0.0 16.28999089631971 0.0 0.0 0.0 34.61538196595647" Properties=species:S:1:pos:R:3:initial_magmoms:R:1 pbc="T T T"
Si      -0.31680792      -2.13400629       0.85579657       0.00000000
Si      -2.09425869       1.02245814       0.06016157       0.00000000
Si       1.88848341       0.58837851       1.29928909       0.00000000
Si       0.35565957      -0.01267362      -2.37672807       0.00000000
Si       3.10324500      -1.45301913       0.79708885       0.00000000
Si      -1.46940687       3.19762926      -0.67129648       0.00000000
Si      -3.40206876      -0.34171533      -1.46793532       0.00000000
Si      -1.26146502      -1.99435212       2.99637837       0.00000000
Si      -1.48765167      -3.49488918      -0.61096183       0.00000000
Si       1.70626347      -3.22230861       1.34515449       0.00000000
