10
Lattice="16.28999089631971 0.0 0.0 0.0 16.28999089631971 0.0 0.0 0.0 34.61538196595647" Properties=species:S:1:pos:R:3:initial_magmoms:R:1 pbc="T T T"
Si       2.21667804       0.12416238      -0.84901195       0.00000000
Si      -0.07398918       1.15859367       2.13459334       0.00000000
Si      -1.04508495       1.48626702      -1.63363925       0.00000000
Si      -0.55219842      -2.40635880       0.20869625       0.00000000
Si       2.16955107      -1.48962276       2.38500115       0.00000000
Si      -3.28393368       0.81668286      -1.53958920       0.00000000
Si       3.74194332      -0.57606327       0.82966194       0.00000000
Si       2.76294690       2.41267999      -1.28104677       0.00000000
Si       2.36395593      -1.06201026      -2.99748606       0.00000000
Si       1.28021481       3.14531622       2.18772798       0.00000000
