10
Lattice="16.28999089631971 0.0 0.0 0.0 16.28999089631971 0.0 0.0 0.0 34.61538196595647" Properties=species:S:1:pos:R:3:initial_magmoms:R:1 pbc="T T T"
Si      -2.23884873      -0.66958416       0.09405005       0.00000000
Si       1.04508495      -1.48626702       1.63363925       0.00000000
Si       0.37481661       2.36582018       0.50853486       0.00000000
Si       0.21597282      -0.36150768      -2.41677809       0.00000000
Si      -2.02504248      -2.78933670      -0.94718123       0.00000000
Si       3.26176299      -1.36210464       0.78462730       0.00000000
Si       1.43682687       1.59964772      -2.98301682       0.00000000
Si      -1.41170769       2.91220307       2.05432022       0.00000000
Si      -3.55265352       0.39961441      -1.54997382       0.00000000
Si       0.97109577      -0.32767335       3.76823259       0.00000000
