10
Lattice="16.28999089631971 0.0 0.0 0.0 16.28999089631971 0.0 0.0 0.0 34.61538196595647" Properties=species:S:1:pos:R:3:initial_magmoms:R:1 pbc="T T T"
Si       2.23884873       0.66958416      -0.09405005       0.00000000
Si      -1.31380479       1.06919857      -1.64402387       0.00000000
Si       0.21380625      -2.11975254      -1.04123127       0.00000000
Si      -1.10938158      -0.01428633       2.09925101       0.00000000
Si       0.21180258       0.55949634      -3.44412858       0.00000000
Si      -2.96122878      -0.70436331      -1.76767008       0.00000000
Si       2.45482155       0.30807648      -2.51082813       0.00000000
Si       3.28393368      -0.81668286       1.53958920       0.00000000
Si      -0.04321737       1.78272940       3.28122851       0.00000000
Si      -0.75132738      -3.63012876       0.48461562       0.00000000
