10
Lattice="16.28999089631971 0.0 0.0 0.0 16.28999089631971 0.0 0.0 0.0 34.61538196595647" Properties=species:S:1:pos:R:3:initial_magmoms:R:1 pbc="T T T"
Si       1.35406122      -1.35801635       1.35962373       0.00000000
Si       1.36005210       1.35441250      -1.36119527       0.00000000
Si      -1.35861858       1.35907144       1.35803142       0.00000000
Si      -1.36647036      -1.36146348      -1.36259027       0.00000000
Si      -0.02658528       2.60695060      -2.75221864       0.00000000
Si       2.71495071      -2.71389186       0.00103846       0.00000000
Si       2.71279718       0.00143515       2.71606285       0.00000000
Si      -2.71621089      -2.71322397       0.00283846       0.00000000
Si      -0.00250866      -2.71302849       2.71640900       0.00000000
Si       2.71373059       2.71646827      -0.00221539       0.00000000
