10
Lattice="16.28999089631971 0.0 0.0 0.0 16.28999089631971 0.0 0.0 0.0 34.61538196595647" Properties=species:S:1:pos:R:3:initial_magmoms:R:1 pbc="T T T"
Si      -0.24092910       1.51033061       1.78494317       0.00000000
Si       0.86727960      -2.11341966       0.71598496       0.00000000
Si       1.88615394       1.14795956      -0.99848125       0.00000000
Si      -1.88185338      -0.59423055      -1.44467377       0.00000000
Si       1.40121693      -2.55789231      -1.55236229       0.00000000
Si      -2.50103628       1.75319822      -2.02039713       0.00000000
Si      -0.72728334      -2.41276470      -2.69982823       0.00000000
Si      -1.41742548       3.30843710       0.88757351       0.00000000
Si       3.39047910       1.29613340       0.83471579       0.00000000
Si       1.89936513       2.48667176       2.21195876       0.00000000
