10
Lattice="16.28999089631971 0.0 0.0 0.0 16.28999089631971 0.0 0.0 0.0 34.61538196595647" Properties=species:S:1:pos:R:3:initial_magmoms:R:1 pbc="T T T"
Si       1.35803214      -1.35503478      -1.36100835       0.00000000
Si      -1.35899325       1.35985662      -1.36187373       0.00000000
Si       1.35661491       1.37546244       1.36125066       0.00000000
Si      -1.35472527      -1.36935369       1.38724682       0.00000000
Si      -2.57266341       0.18751419       2.73357824       0.00000000
Si       2.71067229      -2.71467963       0.00010385       0.00000000
Si       2.71401575       2.71603170      -0.00498462       0.00000000
Si      -2.71572219      -2.71593396      -0.00488077       0.00000000
Si      -0.00058644      -2.71402803      -2.71824362       0.00000000
Si       2.71427869       0.00133578      -2.71879747       0.00000000
