10
Lattice="16.28999089631971 0.0 0.0 0.0 16.28999089631971 0.0 0.0 0.0 34.61538196595647" Properties=species:S:1:pos:R:3:initial_magmoms:R:1 pbc="T T T"
Si      -1.35687254      -1.35653346      -1.35671604       0.00000000
Si       1.35854365       1.35773892      -1.35619681       0.00000000
Si       1.36007491      -1.35312885       1.36156220       0.00000000
Si      -1.36023196       1.35738054       1.36225450       0.00000000
Si      -2.71340968      -2.71400522       0.00093462       0.00000000
Si       2.69601781       0.00125433       2.73146670       0.00000000
Si      -2.71435450       0.00104256      -2.71381285       0.00000000
Si       0.00049522      -2.71428378      -2.71395131       0.00000000
Si       2.71587532       0.00097740      -2.71381285       0.00000000
Si       0.00048056       2.71599912      -2.71370900       0.00000000
