10
Lattice="16.28999089631971 0.0 0.0 0.0 16.28999089631971 0.0 0.0 0.0 34.61538196595647" Properties=species:S:1:pos:R:3:initial_magmoms:R:1 pbc="T T T"
Si      -2.29560309      -0.12961953       0.56326181       0.00000000
Si      -0.17958096       1.69145586      -1.65406234       0.00000000
Si       0.90095103      -2.14817859      -0.47554638       0.00000000
Si       1.15592211       1.44762714       1.56541229       0.00000000
Si      -2.15687745       0.87895953       2.71305131       0.00000000
Si       3.02536251      -1.48716297      -1.26578138       0.00000000
Si      -2.07065448       2.84394078      -0.88553120       0.00000000
Si      -0.80806545       0.47993598      -3.56999018       0.00000000
Si       2.74901895       2.49676830       0.16916547       0.00000000
Si      -3.53457162       0.95726556      -1.10298515       0.00000000
