10
Lattice="16.28999089631971 0.0 0.0 0.0 16.28999089631971 0.0 0.0 0.0 34.61538196595647" Properties=species:S:1:pos:R:3:initial_magmoms:R:1 pbc="T T T"
Si       1.59309684       1.04914116      -1.39624683       0.00000000
Si       1.27617489      -0.93141333       1.83634704       0.00000000
Si      -1.15592211      -1.44762714      -1.56541229       0.00000000
Si      -1.67298300       1.43076699       1.08034667       0.00000000
Si      -1.33550307       0.24382872      -3.21947463       0.00000000
Si      -3.31279956      -0.56866761       1.14763902       0.00000000
Si       2.85590483      -0.97182882      -1.94237401       0.00000000
Si       2.21987481       1.12293486       2.76798595       0.00000000
Si       0.50148765       1.66697199      -3.41304395       0.00000000
Si      -0.29698299      -2.24499006       3.10036303       0.00000000
