10
Lattice="16.28999089631971 0.0 0.0 0.0 16.28999089631971 0.0 0.0 0.0 34.61538196595647" Properties=species:S:1:pos:R:3:initial_magmoms:R:1 pbc="T T T"
Si       1.36092687       1.34457660      -1.36849912       0.00000000
Si      -1.35367849      -1.36205577      -1.35897989       0.00000000
Si       1.35714759      -1.35801585       1.36083527       0.00000000
Si      -1.35954523       1.35685926       1.36010835       0.00000000
Si      -0.08419486       2.65748544      -2.67960937       0.00000000
Si       2.58917658      -0.22351509      -2.76077210       0.00000000
Si       2.71614084       2.71332756       0.00114231       0.00000000
Si      -2.71373059      -2.71646827       0.00221539       0.00000000
Si      -2.71513153       2.71634121       0.00391154       0.00000000
Si       2.71444668       0.00022806       2.71841670       0.00000000
