10
Lattice="16.28999089631971 0.0 0.0 0.0 16.28999089631971 0.0 0.0 0.0 34.61538196595647" Properties=species:S:1:pos:R:3:initial_magmoms:R:1 pbc="T T T"
Si      -1.35651717      -1.35842310      -1.35685450       0.00000000
Si       1.35698958       1.35817875      -1.35706219       0.00000000
Si      -1.35751086       1.35739683       1.35737373       0.00000000
Si       1.35785295      -1.35790182       1.35730450       0.00000000
Si      -2.71277370      -0.00141723       2.71450516       0.00000000
Si       0.00078192       2.71477737      -2.71332823       0.00000000
Si      -0.00060273      -2.71435383       2.71412439       0.00000000
Si      -2.71469592       2.71461447       0.00024231       0.00000000
Si      -0.00040725       2.71528236       2.71415900       0.00000000
Si       2.71448415       2.71497285       0.00024231       0.00000000
