10
Lattice="16.28999089631971 0.0 0.0 0.0 16.28999089631971 0.0 0.0 0.0 34.61538196595647" Properties=species:S:1:pos:R:3:initial_magmoms:R:1 pbc="T T T"
Si       1.33766964      -1.28042658      -1.54381228       0.00000000
Si       1.03099410       1.75918058       1.41033530       0.00000000
Si      -0.76002624      -1.85070690       1.49462380       0.00000000
Si      -1.38495951       1.41479369      -1.53751228       0.00000000
Si      -2.62861956      -2.64688065       0.00408462       0.00000000
Si       2.62326015       2.72732786      -0.11641159       0.00000000
Si       2.63404413      -2.71831230      -0.10114620       0.00000000
Si      -2.64067416       2.83645457      -0.11180775       0.00000000
Si      -0.02886588      -2.63893113      -2.92212833       0.00000000
Si       2.68804597       0.07385886      -2.92119372       0.00000000
