10
Lattice="16.28999089631971 0.0 0.0 0.0 16.28999089631971 0.0 0.0 0.0 34.61538196595647" Properties=species:S:1:pos:R:3:initial_magmoms:R:1 pbc="T T T"
Si       1.35293337      -1.35559855       1.36041989       0.00000000
Si       1.36207206       1.35575154      -1.35159642       0.00000000
Si      -1.36037790       1.35879777       1.36003912       0.00000000
Si      -1.37384973      -1.36960819      -1.38381990       0.00000000
Si      -0.12834891       2.49329853      -2.76156826       0.00000000
Si       2.71254564      -2.71331846      -0.00141923       0.00000000
Si       2.71187775       0.00200856       2.71744746       0.00000000
Si      -2.71630537      -2.71354652       0.00245769       0.00000000
Si       2.71243161       2.71870326       0.00602308       0.00000000
Si      -0.00317655      -2.71348136       2.71772439       0.00000000
