10
Lattice="16.28999089631971 0.0 0.0 0.0 16.28999089631971 0.0 0.0 0.0 34.61538196595647" Properties=species:S:1:pos:R:3:initial_magmoms:R:1 pbc="T T T"
Si       0.28790946       1.69297083      -1.55263921       0.00000000
Si       1.63558116      -1.58803065      -0.62404645       0.00000000
Si       0.84154140       1.21430547       1.93264709       0.00000000
Si      -2.23633030      -0.58911156      -0.91353506       0.00000000
Si      -1.29966507       2.23695909       2.28700495       0.00000000
Si       0.26663472      -2.95912737      -1.97235095       0.00000000
Si      -0.13602150       0.59199489      -3.60149020       0.00000000
Si      -1.95398550      -2.89131210      -1.25906599       0.00000000
Si      -1.52293581       3.20657247      -1.18003903       0.00000000
Si      -2.91076562       2.29858416       0.53051564       0.00000000
