10
Lattice="16.28999089631971 0.0 0.0 0.0 16.28999089631971 0.0 0.0 0.0 34.61538196595647" Properties=species:S:1:pos:R:3:initial_magmoms:R:1 pbc="T T T"
Si      -1.66477284      -1.10524392      -1.27908204       0.00000000
Si       1.39688379      -1.28203929       1.42977877       0.00000000
Si      -1.30168503       1.41856578       1.44415800       0.00000000
Si       0.91018746       1.71152514      -1.46818598       0.00000000
Si      -3.36416845       0.71223138      -1.31002821       0.00000000
Si      -2.53660387       2.66558157      -0.08692966       0.00000000
Si       2.58004278       2.77164576      -0.10054043       0.00000000
Si       0.04246803      -2.63617812       2.79658519       0.00000000
Si       2.61184086      -2.82121623       0.09604735       0.00000000
Si      -2.75786768      -2.69202024       0.11583352       0.00000000
