10
Lattice="16.28999089631971 0.0 0.0 0.0 16.28999089631971 0.0 0.0 0.0 34.61538196595647" Properties=species:S:1:pos:R:3:initial_magmoms:R:1 pbc="T T T"
Si      -1.35656988      -1.35501214       1.35678527       0.00000000
Si      -1.35406122       1.35801635      -1.35962373       0.00000000
Si       1.35873596       1.35945150       1.35643912       0.00000000
Si       1.36088950      -1.35587551      -1.35858527       0.00000000
Si      -2.71406445      -2.71180624      -0.00051923       0.00000000
Si       0.00140877      -2.71306057       2.71343208       0.00000000
Si       2.71510652      -2.71236010      -0.00124615       0.00000000
Si      -2.71372236       0.00220861       2.71384746       0.00000000
Si      -2.71267980       2.71708780      -0.00159231       0.00000000
Si       2.71658891       0.00201847       2.71360515       0.00000000
