10
Lattice="16.28999089631971 0.0 0.0 0.0 16.28999089631971 0.0 0.0 0.0 34.61538196595647" Properties=species:S:1:pos:R:3:initial_magmoms:R:1 pbc="T T T"
Si      -1.10505400      -1.56180375      -1.38150067       0.00000000
Si       0.00935698      -0.11385081       2.36627422       0.00000000
Si       1.63616923       1.12122441      -1.36526604       0.00000000
Si       2.11147885      -1.46619774       2.06366638       0.00000000
Si       3.31214959       0.42629301       1.19111596       0.00000000
Si      -2.89252312      -2.32567443       0.14715007       0.00000000
Si       0.26034841       2.40389901      -2.82340521       0.00000000
Si      -2.44788757      -0.28600353      -2.81928598       0.00000000
Si       0.46396689       2.10616668       3.17817846       0.00000000
Si       2.26120024       3.13165476      -0.20312317       0.00000000
