10
Lattice="16.28999089631971 0.0 0.0 0.0 16.28999089631971 0.0 0.0 0.0 34.61538196595647" Properties=species:S:1:pos:R:3:initial_magmoms:R:1 pbc="T T T"
Si       1.34125344       1.36604682       1.36062758       0.00000000
Si       1.35433431      -1.35892809      -1.35938142       0.00000000
Si      -1.35760534       1.35646830      -1.36010835       0.00000000
Si      -1.36495539      -1.36682874       1.35903527       0.00000000
Si      -2.71460487       2.71267596       0.00176539       0.00000000
Si       2.71280628       2.71609686       0.00051923       0.00000000
Si       2.71425609      -2.71531494       0.00152308       0.00000000
Si       2.71396287      -0.00084708      -2.71654746       0.00000000
Si      -0.00055386       2.71402019      -2.71703208       0.00000000
Si      -2.71579052      -2.71616202      -0.00308077       0.00000000
