10
Lattice="10.86 0.0 0.0 0.0 10.86 0.0 0.0 0.0 10.86" Properties=species:S:1:pos:R:3:initial_magmoms:R:1 pbc="T T T"
Si       1.27033764      -1.32682050      -1.35640314       0.00000000
Si       1.27033764       1.38817950       1.35859686       0.00000000
Si      -1.44466236      -1.32682050       1.35859686       0.00000000
Si      -0.15404910       2.53147686      -2.54409618       0.00000000
Si       2.65966830      -0.13492464      -2.61224268       0.00000000
Si       2.62783764      -2.68432050       0.00109686       0.00000000
Si       2.62783764       0.03067950       2.71609686       0.00000000
Si       2.58183468       2.78402616      -0.05464752       0.00000000
Si      -0.08716236      -2.68432050      -2.71390314       0.00000000
Si      -0.08716236      -2.68432050       2.71609686       0.00000000
