10
Lattice="10.86 0.0 0.0 0.0 10.86 0.0 0.0 0.0 10.86" Properties=species:S:1:pos:R:3:initial_magmoms:R:1 pbc="T T T"
Si      -1.30780464       1.36111638      -1.34695494       0.00000000
Si      -1.30780464      -1.35388362       1.36804506       0.00000000
Si       1.40719536       1.36111638       1.36804506       0.00000000
Si      -2.65472700      -2.63413644       0.03776022       0.00000000
Si      -2.66530464       2.71861638       0.01054506       0.00000000
Si      -2.66530464       0.00361638       2.72554506       0.00000000
Si       2.71869240      -2.67303696      -0.04519932       0.00000000
Si       0.04969536       2.71861638      -2.70445494       0.00000000
Si       0.04969536      -2.71138362       2.72554506       0.00000000
Si       0.04969536       2.71861638       2.72554506       0.00000000
