10
Lattice="10.86 0.0 0.0 0.0 10.86 0.0 0.0 0.0 10.86" Properties=species:S:1:pos:R:3:initial_magmoms:R:1 pbc="T T T"
Si       1.50896442      -1.20517764      -1.37672220       0.00000000
Si      -1.20603558       1.50982236      -1.37672220       0.00000000
Si      -1.68164928      -0.60948492       1.61815086       0.00000000
Si       1.50896442       1.50982236       1.33827780       0.00000000
Si      -0.24745596      -2.36972802       2.45480526       0.00000000
Si       0.15146442      -2.56267764      -2.73422220       0.00000000
Si      -2.56353558       0.15232236      -2.73422220       0.00000000
Si       2.86646442      -2.56267764      -0.01922220       0.00000000
Si      -2.56848774       2.89917474       0.15922932       0.00000000
Si       2.86646442       0.15232236       2.69577780       0.00000000
