10
Lattice="10.86 0.0 0.0 0.0 10.86 0.0 0.0 0.0 10.86" Properties=species:S:1:pos:R:3:initial_magmoms:R:1 pbc="T T T"
Si      -1.45267704      -1.10047638       1.40050560       0.00000000
Si       1.26232296       1.61452362       1.40050560       0.00000000
Si       1.61936718      -1.54093626      -1.15614474       0.00000000
Si      -1.45267704       1.61452362      -1.31449440       0.00000000
Si      -0.08976876      -2.56658724       2.48655990       0.00000000
Si       2.61487080       0.28887600      -2.49354288       0.00000000
Si      -0.05409366      -2.53901370      -2.68195302       0.00000000
Si      -2.81017704      -2.45797638       0.04300560       0.00000000
Si       1.23445620      -3.42332178       1.05058554       0.00000000
Si       2.72313414       0.20167020       2.68460286       0.00000000
