10
Lattice="10.86 0.0 0.0 0.0 10.86 0.0 0.0 0.0 10.86" Properties=species:S:1:pos:R:3:initial_magmoms:R:1 pbc="T T T"
Si      -1.32422496       0.85673454       1.43597436       0.00000000
Si      -0.64993842      -2.16558174      -0.47925180       0.00000000
Si       1.49488986      -1.44724704       1.50242670       0.00000000
Si       0.38491098       1.88238552      -2.20673028       0.00000000
Si       2.26725306       0.20353812      -2.08520688       0.00000000
Si      -2.68713324       2.32284540       0.34992006       0.00000000
Si      -2.68713324      -0.39215460      -2.36507994       0.00000000
Si      -1.23445620       3.42332178      -1.05058554       0.00000000
Si       0.02786676       2.32284540       3.06492006       0.00000000
Si       0.02786676      -3.10715460      -2.36507994       0.00000000
