10
Lattice="10.86 0.0 0.0 0.0 10.86 0.0 0.0 0.0 10.86" Properties=species:S:1:pos:R:3:initial_magmoms:R:1 pbc="T T T"
Si       1.31827368       1.26598278       1.30044156       0.00000000
Si      -1.39672632       1.26598278      -1.41455844       0.00000000
Si      -1.39672632      -1.44901722       1.30044156       0.00000000
Si       2.65662750       2.58858960      -0.23645478       0.00000000
Si      -0.03922632       2.62348278       2.65794156       0.00000000
Si       2.67577368      -0.09151722       2.65794156       0.00000000
Si      -2.75422632       2.62348278      -0.05705844       0.00000000
Si       0.02218698       2.64974226      -2.74213914       0.00000000
Si      -2.75422632      -0.09151722       2.65794156       0.00000000
Si      -0.03922632      -2.80651722       2.65794156       0.00000000
