10
Lattice="10.86 0.0 0.0 0.0 10.86 0.0 0.0 0.0 10.86" Properties=species:S:1:pos:R:3:initial_magmoms:R:1 pbc="T T T"
Si      -0.59396598       1.29011370       1.87016802       0.00000000
Si      -1.64587644       0.06861348      -1.78724106       0.00000000
Si       2.22535518       1.32372540      -0.77359038       0.00000000
Si       2.15681772      -1.34085162       2.02983174       0.00000000
Si      -1.93231980       2.68250688       0.69206436       0.00000000
Si       0.78268020       2.68250688      -2.02293564       0.00000000
Si      -3.22840650       1.35126636      -0.63551634       0.00000000
Si      -0.57720900       1.34707440      -3.36704526       0.00000000
Si      -1.93231980      -0.03249312       3.40706436       0.00000000
Si       3.49768020      -0.03249312      -2.02293564       0.00000000
