10
Lattice="16.28999089631971 0.0 0.0 0.0 16.28999089631971 0.0 0.0 0.0 34.40785480372833" Properties=species:S:1:pos:R:3:initial_magmoms:R:1 pbc="T T T"
Si      -1.20906565       1.35018036       1.46178756       0.00000000
Si       0.83033551       1.84106322      -1.28494971       0.00000000
Si      -1.83769675      -0.66088856      -1.46428355       0.00000000
Si       1.50024547      -1.35057143       1.41819278       0.00000000
Si       0.30073946       0.75665421      -3.35513386       0.00000000
Si      -2.40625033      -2.59104572      -0.09336577       0.00000000
Si      -2.66407216       2.57914683       0.13670248       0.00000000
Si      -2.55574366      -0.00472573       2.80395959       0.00000000
Si      -0.94677643       3.60911466      -1.12362285       0.00000000
Si       0.16315250       2.70749574       2.79948657       0.00000000
