10
Lattice="16.28999089631971 0.0 0.0 0.0 16.28999089631971 0.0 0.0 0.0 34.40785480372833" Properties=species:S:1:pos:R:3:initial_magmoms:R:1 pbc="T T T"
Si      -0.09070272      -1.12396113       2.08542684       0.00000000
Si      -1.18996821      -1.08310581      -1.78077952       0.00000000
Si       2.33686566       0.02195892      -0.58582846       0.00000000
Si      -0.88547553       2.20635018       0.42438672       0.00000000
Si      -2.30351514      -1.67886369       2.35342977       0.00000000
Si       3.33860292       0.70191981       1.42947513       0.00000000
Si      -0.03762990      -3.13496163      -2.05043403       0.00000000
Si       0.98746722       3.61134639       0.47107820       0.00000000
Si      -0.96826131       0.31210011      -3.71790842       0.00000000
Si       2.65349439       1.64584386      -2.26785739       0.00000000
