10
Lattice="16.28999089631971 0.0 0.0 0.0 16.28999089631971 0.0 0.0 0.0 34.40785480372833" Properties=species:S:1:pos:R:3:initial_magmoms:R:1 pbc="T T T"
Si      -0.08462655       1.45619568       1.82420226       0.00000000
Si      -1.93148901       0.63649917      -1.15342075       0.00000000
Si      -0.00930159      -2.29267089       0.47455340       0.00000000
Si       1.95159087       0.45743949      -1.42479566       0.00000000
Si      -1.46642580       2.95649069      -0.97656428       0.00000000
Si      -1.03983957       0.07985358      -3.33195530       0.00000000
Si       0.08759133       3.49994627       0.72036325       0.00000000
Si       1.53261207       0.57324510       3.27280816       0.00000000
Si       2.23609572      -2.68499925       1.08756408       0.00000000
Si      -0.24506676      -3.25045773      -1.67091518       0.00000000
