10
Lattice="16.28999089631971 0.0 0.0 0.0 16.28999089631971 0.0 0.0 0.0 34.40785480372833" Properties=species:S:1:pos:R:3:initial_magmoms:R:1 pbc="T T T"
Si       0.00930159       2.29267089      -0.47455340       0.00000000
Si       2.24539731      -0.39232836       0.61301068       0.00000000
Si      -0.23576517      -0.95778684      -2.14546858       0.00000000
Si      -1.34447886      -1.30860828       1.57078827       0.00000000
Si      -2.44857759      -1.51268940      -1.87746565       0.00000000
Si      -2.04897249      -3.03132465       0.01482979       0.00000000
Si       3.51202626      -0.89945235      -1.27694502       0.00000000
Si       2.26751913      -2.16402876       2.23424089       0.00000000
Si       0.62043723      -3.14763525      -2.13139576       0.00000000
Si      -1.92218742       2.92917006      -1.62797415       0.00000000
