10
Lattice="16.28999089631971 0.0 0.0 0.0 16.28999089631971 0.0 0.0 0.0 34.40785480372833" Properties=species:S:1:pos:R:3:initial_magmoms:R:1 pbc="T T T"
Si       1.46406375      -1.50260589       1.02452886       0.00000000
Si       1.77078816       0.10524969      -1.58558365       0.00000000
Si      -0.36547430       2.40094142       0.58999182       0.00000000
Si      -2.18058659      -1.00282869      -0.98096849       0.00000000
Si       3.38802678      -0.77770089      -0.13697775       0.00000000
Si      -3.57369110       0.62870019       0.15390642       0.00000000
Si      -2.50391051       0.98339865       2.48084213       0.00000000
Si       1.94300604       2.14900028      -2.68942266       0.00000000
Si       1.85541471      -1.35094599      -3.40978591       0.00000000
Si       1.22000697      -2.87119395       2.83547139       0.00000000
