10
Lattice="16.28999089631971 0.0 0.0 0.0 16.28999089631971 0.0 0.0 0.0 34.40785480372833" Properties=species:S:1:pos:R:3:initial_magmoms:R:1 pbc="T T T"
Si      -1.34294760       1.31281007      -1.35228450       0.00000000
Si       1.33174008       1.36655730       1.36253461       0.00000000
Si      -1.38407985      -1.34823051       1.36060777       0.00000000
Si       1.33923348      -1.32560370      -1.51376410       0.00000000
Si      -2.11621761      -0.65367378      -2.49204671       0.00000000
Si      -0.47467431      -2.35672812      -2.71859851       0.00000000
Si       2.69374698      -2.69992584      -0.02730953       0.00000000
Si       2.67535557       2.73421357      -0.01557989       0.00000000
Si       2.69179218       0.01038740       2.72054458       0.00000000
Si      -0.02428839      -2.70466623       2.71927149       0.00000000
