10
Lattice="16.28999089631971 0.0 0.0 0.0 16.28999089631971 0.0 0.0 0.0 34.40785480372833" Properties=species:S:1:pos:R:3:initial_magmoms:R:1 pbc="T T T"
Si       1.34294760      -1.31281007       1.35228450       0.00000000
Si      -1.40646231       1.41579974       1.31191718       0.00000000
Si      -0.77327001      -1.96648386      -1.13976220       0.00000000
Si       1.14702777       1.45129565      -1.59085979       0.00000000
Si      -0.60706314      -0.60446163      -2.99745368       0.00000000
Si      -1.17164196       1.76994434      -2.59632669       0.00000000
Si      -2.56196088       2.64637892      -0.73679301       0.00000000
Si       2.68218108      -2.63841378      -0.16147959       0.00000000
Si      -0.04113225      -2.66104059       2.71289227       0.00000000
Si       2.61032589       2.75719979      -0.20496082       0.00000000
