10
Lattice="16.28999089631971 0.0 0.0 0.0 16.28999089631971 0.0 0.0 0.0 34.40785480372833" Properties=species:S:1:pos:R:3:initial_magmoms:R:1 pbc="T T T"
Si       1.32787935       1.34829072      -1.37803536       0.00000000
Si      -1.29756366       1.40092371       1.36785062       0.00000000
Si      -1.38834783      -1.36343552      -1.37776009       0.00000000
Si       1.52523270      -1.30101616       1.60667568       0.00000000
Si      -2.18271339      -0.31019255       2.65625347       0.00000000
Si      -0.43810326      -2.04725294       2.92497896       0.00000000
Si       2.68618842       2.71560816       0.00457625       0.00000000
Si       2.67853212      -2.72643191       0.01011591       0.00000000
Si       2.68525989      -0.00270577      -2.73824743       0.00000000
Si      -2.75211405       2.69462664      -0.01758242       0.00000000
