10
Lattice="16.28999089631971 0.0 0.0 0.0 16.28999089631971 0.0 0.0 0.0 34.40785480372833" Properties=species:S:1:pos:R:3:initial_magmoms:R:1 pbc="T T T"
Si      -2.09155455      -0.62960850      -0.86133231       0.00000000
Si       1.06588728      -2.05122051       0.53679724       0.00000000
Si       0.96282045       1.39965309      -1.67776235       0.00000000
Si       0.20988036       1.04259258       2.17258198       0.00000000
Si       3.30375861      -1.32063030       0.56177736       0.00000000
Si      -0.08236224      -2.65623600       2.57897338       0.00000000
Si       2.48727123       1.71989820       2.29235579       0.00000000
Si       0.30408543       3.63411981      -1.12352031       0.00000000
Si      -0.23636790      -0.62817498       3.82784158       0.00000000
Si      -3.90078711       0.55692252      -0.02725104       0.00000000
