10
Lattice="16.28999089631971 0.0 0.0 0.0 16.28999089631971 0.0 0.0 0.0 34.40785480372833" Properties=species:S:1:pos:R:3:initial_magmoms:R:1 pbc="T T T"
Si       0.15400566      -2.02806102      -1.24886820       0.00000000
Si       0.44624826       1.67076756      -1.65525960       0.00000000
Si      -2.13477192       0.03479544       1.09227796       0.00000000
Si       2.00800314      -0.03549591       1.44320387       0.00000000
Si       1.08509319      -3.08892609       0.67659643       0.00000000
Si      -1.73278359      -0.95975793       3.15279350       0.00000000
Si       3.18176280       1.81762191       0.69865188       0.00000000
Si       3.14880813      -1.90197316       0.68000281       0.00000000
Si      -2.60403795       2.25118026       1.57044419       0.00000000
Si       1.30225518      -1.42304553      -3.29104434       0.00000000
