10
Lattice="16.28999089631971 0.0 0.0 0.0 16.28999089631971 0.0 0.0 0.0 34.40785480372833" Properties=species:S:1:pos:R:3:initial_magmoms:R:1 pbc="T T T"
Si      -1.35689184       1.35726651      -1.36341201       0.00000000
Si       1.36076886      -1.36104579      -1.36251740       0.00000000
Si       1.34087877       1.38424275       1.37617733       0.00000000
Si      -1.37546244      -1.35935163       1.38357502       0.00000000
Si       2.53288323      -0.11137473       2.74241078       0.00000000
Si      -2.71187775       2.71000440      -0.00581493       0.00000000
Si      -2.71238274      -2.71345788      -0.00024086       0.00000000
Si       2.71608057       2.71533123      -0.00189243       0.00000000
Si       2.71696023      -2.71557558      -0.00977184       0.00000000
Si      -2.71313208      -0.00097740      -2.71980481       0.00000000
