10
Lattice="16.28999089631971 0.0 0.0 0.0 16.28999089631971 0.0 0.0 0.0 34.40785480372833" Properties=species:S:1:pos:R:3:initial_magmoms:R:1 pbc="T T T"
Si       0.16620687       1.36202223      -1.85769148       0.00000000
Si      -2.01582234      -0.66368718       1.02023957       0.00000000
Si       1.64154330      -1.70305434      -0.22655180       0.00000000
Si       0.77327001       1.96648386       1.13976220       0.00000000
Si      -0.79939917      -0.39679182      -3.02958926       0.00000000
Si      -0.62946189      -2.04859782       2.49235638       0.00000000
Si       2.11621761       0.65367378       2.49204671       0.00000000
Si      -2.72336220      -1.12169682      -1.86808266       0.00000000
Si       0.67434084      -3.40737930       1.05733126       0.00000000
Si       3.45545109      -0.67192992       0.97828261       0.00000000
