10
Lattice="16.28999089631971 0.0 0.0 0.0 16.28999089631971 0.0 0.0 0.0 34.40785480372833" Properties=species:S:1:pos:R:3:initial_magmoms:R:1 pbc="T T T"
Si       0.96560604       1.75881405       1.17189778       0.00000000
Si      -1.61723862       0.88295058      -1.44860590       0.00000000
Si      -1.92396303      -0.72490500       1.16150660       0.00000000
Si       1.76319702      -1.34281728      -1.20193586       0.00000000
Si       0.79939917       0.39679182       3.02958926       0.00000000
Si      -3.38802678       0.77770089       0.13697775       0.00000000
Si       2.97307161       1.94197718      -0.14117551       0.00000000
Si      -1.53261207      -0.57324510      -3.27280816       0.00000000
Si       2.86242993      -2.43986733       0.72397608       0.00000000
Si       3.25493748       0.33146892      -2.05387482       0.00000000
