10
Lattice="16.28999089631971 0.0 0.0 0.0 16.28999089631971 0.0 0.0 0.0 34.40785480372833" Properties=species:S:1:pos:R:3:initial_magmoms:R:1 pbc="T T T"
Si       2.31247953       0.02953377       0.12108131       0.00000000
Si      -0.42148746       1.13360481       2.07906138       0.00000000
Si      -0.16739604      -2.41422687      -0.04338833       0.00000000
Si      -1.09923291       1.09705005      -1.92591193       0.00000000
Si       1.35220032      -2.56402971      -2.00917899       0.00000000
Si      -2.13682446      -2.59007742      -1.28798995       0.00000000
Si      -1.38868992      -0.57072015       3.36294444       0.00000000
Si      -2.15894628      -0.81837702      -2.90922016       0.00000000
Si       2.80217322      -1.57864761       1.87584848       0.00000000
Si      -2.86242993       2.43986733      -0.72397608       0.00000000
