10
Lattice="16.28999089631971 0.0 0.0 0.0 16.28999089631971 0.0 0.0 0.0 34.40785480372833" Properties=species:S:1:pos:R:3:initial_magmoms:R:1 pbc="T T T"
Si      -1.35793440      -1.35710442       1.35697774       0.00000000
Si       1.35734796      -1.35725103      -1.35790675       0.00000000
Si       1.35700587       1.35875365       1.35677129       0.00000000
Si      -1.35812988       1.35800757      -1.35797556       0.00000000
Si      -0.00037467       2.70975014       2.71698337       0.00000000
Si      -0.00019548      -2.71323063      -2.71584791       0.00000000
Si       2.71467963      -2.71461528      -0.00041289       0.00000000
Si      -2.71534752       2.71398554      -0.00144513       0.00000000
Si      -2.71363707      -0.00140969      -2.71577909       0.00000000
Si       0.00100998       2.71354571      -2.71588231       0.00000000
