10
Lattice="16.28999089631971 0.0 0.0 0.0 16.28999089631971 0.0 0.0 0.0 34.40785480372833" Properties=species:S:1:pos:R:3:initial_magmoms:R:1 pbc="T T T"
Si       0.93882528       2.18695042       0.51439772       0.00000000
Si       1.81986993      -1.47084595      -0.75232817       0.00000000
Si      -0.87149871      -1.20144193       2.10854893       0.00000000
Si      -1.79198145      -0.34692552      -2.00869728       0.00000000
Si       0.90564255       2.46184417      -2.24160418       0.00000000
Si       0.64995471      -3.16679785      -2.12668188       0.00000000
Si       2.77210188      -2.37717268       1.33299545       0.00000000
Si       0.76971879      -2.95603783       2.43225821       0.00000000
Si      -3.75531741      -1.09316230      -0.69039399       0.00000000
Si      -3.17127204      -1.73829517       1.72583015       0.00000000
