10
Lattice="16.28999089631971 0.0 0.0 0.0 16.28999089631971 0.0 0.0 0.0 34.40785480372833" Properties=species:S:1:pos:R:3:initial_magmoms:R:1 pbc="T T T"
Si       2.23787133       0.73059021       0.02498012       0.00000000
Si      -1.06588728       2.05122051      -0.53679724       0.00000000
Si       0.34500591      -1.94982245      -1.35222945       0.00000000
Si      -1.14824952      -0.60501549       2.04217614       0.00000000
Si       2.97287613      -0.22572564       1.96159290       0.00000000
Si      -0.85600692       3.09381309       1.63578474       0.00000000
Si      -3.15744183       1.42161201      -1.39812955       0.00000000
Si       3.28997727      -0.34346813      -1.76023802       0.00000000
Si      -1.30225518       1.42304553       3.29104434       0.00000000
Si      -3.21196446      -1.60063015       1.31094000       0.00000000
