10
Lattice="16.28999089631971 0.0 0.0 0.0 16.28999089631971 0.0 0.0 0.0 34.40785480372833" Properties=species:S:1:pos:R:3:initial_magmoms:R:1 pbc="T T T"
Si       0.73500480      -0.95631585       1.93661278       0.00000000
Si       1.05210594      -1.07405834      -1.78521814       0.00000000
Si      -2.23787133      -0.73059021      -0.02498012       0.00000000
Si       0.62027433       2.28561732       0.00990947       0.00000000
Si       0.02927313       2.63976192      -2.25870489       0.00000000
Si       0.36479826      -3.37408973      -1.01458498       0.00000000
Si      -1.89286542      -2.68041266      -1.37720957       0.00000000
Si      -0.81648738       3.04052850       1.73057843       0.00000000
Si      -3.30375861       1.32063030      -0.56177736       0.00000000
Si       3.26932155      -1.04334518      -1.10796795       0.00000000
