10
Lattice="16.28999089631971 0.0 0.0 0.0 16.28999089631971 0.0 0.0 0.0 34.40785480372833" Properties=species:S:1:pos:R:3:initial_magmoms:R:1 pbc="T T T"
Si      -1.35537687       1.35790182       1.36323997       0.00000000
Si       1.36014984      -1.35874890       1.36231096       0.00000000
Si      -1.35832536      -1.35754344      -1.39293741       0.00000000
Si       1.35962856       1.36704051      -1.38935899       0.00000000
Si      -2.71394658       2.71013472       0.00653750       0.00000000
Si      -2.71681362      -2.71120986      -0.00144513       0.00000000
Si       2.71754667       2.71062342       0.00000000       0.00000000
Si       2.71661814      -2.71435383       0.00388809       0.00000000
Si      -2.71290402      -0.00083079       2.72008007       0.00000000
Si       0.00203625       2.71342530       2.72045856       0.00000000
