10
Lattice="16.28999089631971 0.0 0.0 0.0 16.28999089631971 0.0 0.0 0.0 34.40785480372833" Properties=species:S:1:pos:R:3:initial_magmoms:R:1 pbc="T T T"
Si       1.44182790       0.63832854      -1.74950276       0.00000000
Si       1.55401713       0.54345558       1.69692753       0.00000000
Si      -0.46506321      -2.31999152      -0.17685647       0.00000000
Si      -2.10653630       1.07636664      -0.19350988       0.00000000
Si       1.46642580      -2.95649069       0.97656428       0.00000000
Si       1.38179925      -1.50029501       2.80076654       0.00000000
Si      -0.11124441       1.93480077      -2.88527228       0.00000000
Si       2.29952898      -1.47164090      -2.30869953       0.00000000
Si       0.42658623      -2.87663711      -2.35539102       0.00000000
Si       0.89748126       2.71629723       2.44743208       0.00000000
