10
Lattice="16.28999089631971 0.0 0.0 0.0 16.28999089631971 0.0 0.0 0.0 34.40785480372833" Properties=species:S:1:pos:R:3:initial_magmoms:R:1 pbc="T T T"
Si       2.10046518       0.90002250       0.42001692       0.00000000
Si      -0.03526785      -2.33373798      -0.05174944       0.00000000
Si      -1.03115700       0.60097068       2.02989253       0.00000000
Si      -0.71485407       0.82297080      -2.09358150       0.00000000
Si      -3.15897309       0.95017941       1.18473192       0.00000000
Si       3.19051053       0.30641490      -1.59728233       0.00000000
Si       1.43298243       0.96396075      -3.15416981       0.00000000
Si       0.42285582      -2.86418925       2.18238823       0.00000000
Si       2.58199758       0.00278559       2.56930477       0.00000000
Si      -1.51676190       2.96849412      -1.52715908       0.00000000
