10
Lattice="16.28999089631971 0.0 0.0 0.0 16.28999089631971 0.0 0.0 0.0 34.40785480372833" Properties=species:S:1:pos:R:3:initial_magmoms:R:1 pbc="T T T"
Si      -1.32310638      -1.35956340      -1.35962714       0.00000000
Si       1.27340559      -1.35536058       1.41560875       0.00000000
Si       1.39274613       1.35524655      -1.34982090       0.00000000
Si      -1.50718338       1.24463745       1.39255548       0.00000000
Si       0.37095588       1.99987443       2.60880501       0.00000000
Si       2.34773109       0.52683489       2.45586201       0.00000000
Si      -2.67289578      -2.71228500       0.00512677       0.00000000
Si      -2.67929775      -0.00503361      -2.71237271       0.00000000
Si       0.03477915       2.71236645      -2.71233830       0.00000000
Si       0.03280806      -2.71689507      -2.71244153       0.00000000
