10
Lattice="16.28999089631971 0.0 0.0 0.0 16.28999089631971 0.0 0.0 0.0 34.40785480372833" Properties=species:S:1:pos:R:3:initial_magmoms:R:1 pbc="T T T"
Si      -0.80190783       2.14552332       0.56642242       0.00000000
Si       0.71485407      -0.82297080       2.09358150       0.00000000
Si      -1.50359958      -1.24248717      -1.37404404       0.00000000
Si       2.14783650       0.14098995      -1.06058831       0.00000000
Si      -3.46540428      -1.28923947      -0.11505993       0.00000000
Si       2.81531925       0.07705170       2.51359842       0.00000000
Si       2.15280495       2.33263026      -2.05432212       0.00000000
Si       1.09792971       3.36955392       1.32170967       0.00000000
Si       0.67958622      -3.15670878       2.04183206       0.00000000
Si      -2.86511778       1.90446390       1.70288009       0.00000000
