10
Lattice="16.28999089631971 0.0 0.0 0.0 16.28999089631971 0.0 0.0 0.0 34.40785480372833" Properties=species:S:1:pos:R:3:initial_magmoms:R:1 pbc="T T T"
Si      -1.33116993      -1.38440565      -1.33947101       0.00000000
Si       1.35822762      -1.35392706       1.36564852       0.00000000
Si      -1.35700587       1.36163223       1.36571734       0.00000000
Si       1.38386808       1.37529954      -1.35944822       0.00000000
Si      -2.77820737      -0.12567735      -2.60455908       0.00000000
Si       2.71238274      -2.70671382       0.00041289       0.00000000
Si      -2.70869468      -2.71391400       0.00488592       0.00000000
Si       2.71524978       2.71463076       0.00839552       0.00000000
Si      -2.71209604       2.71806795       0.00481710       0.00000000
Si       0.00057015      -2.71132389       2.72135317       0.00000000
