10
Lattice="16.28999089631971 0.0 0.0 0.0 16.28999089631971 0.0 0.0 0.0 34.40785480372833" Properties=species:S:1:pos:R:3:initial_magmoms:R:1 pbc="T T T"
Si      -1.35428095       1.35770664      -1.35505090       0.00000000
Si      -1.35556786      -1.35800482       1.35776912       0.00000000
Si       1.35915317       1.35703712       1.35773471       0.00000000
Si       1.36328594      -1.36323391      -1.36100346       0.00000000
Si      -0.00760294       2.71261273      -2.69722292       0.00000000
Si      -2.69897158      -0.02187212      -2.72353118       0.00000000
Si      -2.71270405       2.71357384       0.00048171       0.00000000
Si      -2.71312759       0.00018768       2.71512534       0.00000000
Si       2.71384423       2.71450237       0.00041289       0.00000000
Si       0.00164634       2.71460011       2.71491889       0.00000000
