10
Lattice="16.28999089631971 0.0 0.0 0.0 16.28999089631971 0.0 0.0 0.0 34.40785480372833" Properties=species:S:1:pos:R:3:initial_magmoms:R:1 pbc="T T T"
Si       1.37752475       1.32950835      -1.34435693       0.00000000
Si       1.34922902      -1.35542574       1.35993681       0.00000000
Si      -1.37221814      -1.35731538      -1.33769900       0.00000000
Si      -1.36318401       1.35817875       1.36096905       0.00000000
Si      -0.06951269       2.58823665      -2.60944500       0.00000000
Si       2.70701681      -2.70720741      -0.00443862       0.00000000
Si       2.70869468       2.71391400      -0.00488592       0.00000000
Si       2.70926483       0.00259011       2.71646725       0.00000000
Si      -0.00546204      -2.71289099       2.71725863       0.00000000
Si      -2.71889615      -2.71222147       0.00447302       0.00000000
