10
Lattice="16.28999089631971 0.0 0.0 0.0 16.28999089631971 0.0 0.0 0.0 34.40785480372833" Properties=species:S:1:pos:R:3:initial_magmoms:R:1 pbc="T T T"
Si       1.46579049       1.16743914       1.45525492       0.00000000
Si      -0.48969369       1.60818138      -1.75476717       0.00000000
Si       0.44067708      -0.55754154      -2.37538199       0.00000000
Si      -1.36132272      -1.53718956       1.39903590       0.00000000
Si       1.21829652      -2.78871768      -1.95292211       0.00000000
Si      -2.96956926      -0.83557926      -1.91923681       0.00000000
Si      -2.80217322       1.57864761      -1.87584848       0.00000000
Si      -0.05523939       2.36905470       2.89450188       0.00000000
Si       2.86233219       2.49033375      -0.15125701       0.00000000
Si      -2.67561621      -2.74737366      -0.22451138       0.00000000
