10
Lattice="16.28999089631971 0.0 0.0 0.0 16.28999089631971 0.0 0.0 0.0 34.40785480372833" Properties=species:S:1:pos:R:3:initial_magmoms:R:1 pbc="T T T"
Si      -0.29623365      -2.34059607      -0.16653411       0.00000000
Si      -0.07688880       1.41379281      -1.93007529       0.00000000
Si       1.89064998       0.42784056       1.50964547       0.00000000
Si      -1.51959636       0.14980284       1.96579066       0.00000000
Si       1.04384691      -0.30169080      -3.10744392       0.00000000
Si       0.96027921       2.59356348       2.13026030       0.00000000
Si      -1.35220032       2.56402971       2.00917899       0.00000000
Si      -3.48902478      -0.02604771       0.72118904       0.00000000
Si       0.41938605      -2.88016974       2.18493441       0.00000000
Si      -2.28951063      -2.40929100      -1.49460923       0.00000000
