10
Lattice="16.28999089631971 0.0 0.0 0.0 16.28999089631971 0.0 0.0 0.0 34.40785480372833" Properties=species:S:1:pos:R:3:initial_magmoms:R:1 pbc="T T T"
Si       0.90117909      -0.94159458       1.96193698       0.00000000
Si      -2.28762099       0.46139796       0.61046450       0.00000000
Si       1.18459251       2.14549793      -0.03674761       0.00000000
Si       0.13049919      -1.59066963      -1.88114729       0.00000000
Si       2.12222862       1.57100338      -2.13511181       0.00000000
Si      -1.40481702      -3.46017519      -0.55093888       0.00000000
Si       1.88920017      -0.52116597      -3.25532896       0.00000000
Si      -3.40166151       1.45615400      -1.24036945       0.00000000
Si      -1.93186368       1.22097527      -3.17615644       0.00000000
Si      -1.68379956      -1.08608688      -3.36185574       0.00000000
