10
Lattice="16.28999089631971 0.0 0.0 0.0 16.28999089631971 0.0 0.0 0.0 34.40785480372833" Properties=species:S:1:pos:R:3:initial_magmoms:R:1 pbc="T T T"
Si      -1.42910541       1.30299295      -1.32394274       0.00000000
Si      -1.37031480      -1.33574174       1.36675989       0.00000000
Si       1.34469063       1.37957876       1.36848029       0.00000000
Si       1.49418396      -1.20674123      -1.52884507       0.00000000
Si       0.22475313       2.35466721      -2.63129468       0.00000000
Si       2.06273754       0.72341593      -2.89976285       0.00000000
Si       2.70819621      -2.69079281      -0.02697577       0.00000000
Si      -2.72595231      -2.68714385      -0.02325628       0.00000000
Si      -0.01619226      -2.69315486       2.72384085       0.00000000
Si       2.69897158       0.02187212       2.72353118       0.00000000
