10
Lattice="16.28999089631971 0.0 0.0 0.0 16.28999089631971 0.0 0.0 0.0 34.40785480372833" Properties=species:S:1:pos:R:3:initial_magmoms:R:1 pbc="T T T"
Si       1.45500651      -1.22896647       1.32508508       0.00000000
Si      -1.01160900      -1.60878411      -1.33251787       0.00000000
Si      -1.26706878       1.49130063       1.28995808       0.00000000
Si       1.71729573       1.02996783      -1.26032533       0.00000000
Si      -0.05753628       1.63699839      -2.74281133       0.00000000
Si      -1.33322247      -0.49511826      -3.41514119       0.00000000
Si       0.82637541      -3.24003539      -1.60098603       0.00000000
Si       2.66407216      -2.57914683      -0.13670248       0.00000000
Si       0.10832850      -2.58387256       2.66725711       0.00000000
Si      -2.60825706       0.13240512       2.66364428       0.00000000
