10
Lattice="16.28999089631971 0.0 0.0 0.0 16.28999089631971 0.0 0.0 0.0 34.40785480372833" Properties=species:S:1:pos:R:3:initial_magmoms:R:1 pbc="T T T"
Si      -1.16418114      -0.09039321      -2.06412836       0.00000000
Si      -0.11912877      -1.30673982       2.01489070       0.00000000
Si       2.14351055       1.14855903      -0.17792312       0.00000000
Si      -1.46481309       1.93686471       0.77459006       0.00000000
Si       0.67536941       1.09325448      -3.23096819       0.00000000
Si       0.47111790       2.51445924       2.37238851       0.00000000
Si       2.73749282       1.72812465       2.10610597       0.00000000
Si       2.03834231      -1.72941645       2.85888144       0.00000000
Si      -3.09521403       1.56027249      -1.84942323       0.00000000
Si      -0.95456142      -3.47293745       1.76178637       0.00000000
