10
Lattice="16.28999089631971 0.0 0.0 0.0 16.28999089631971 0.0 0.0 0.0 34.40785480372833" Properties=species:S:1:pos:R:3:initial_magmoms:R:1 pbc="T T T"
Si       1.04152968      -0.73870263      -1.96620355       0.00000000
Si      -1.66741182      -1.18236078       1.22560847       0.00000000
Si      -1.46570904       1.82646738      -0.54976901       0.00000000
Si       1.79285364       0.61546878       1.54567052       0.00000000
Si      -0.49226751       3.64112451       0.63943593       0.00000000
Si       1.03950809       2.82005964       2.27260567       0.00000000
Si       1.25467765       1.13124276      -3.40338604       0.00000000
Si      -1.90443132       0.30770181       3.28034349       0.00000000
Si      -0.43414479      -2.02653627      -3.27408125       0.00000000
Si      -3.61967058       1.51278714       0.43625743       0.00000000
