10
Lattice="16.28999089631971 0.0 0.0 0.0 16.28999089631971 0.0 0.0 0.0 34.40785480372833" Properties=species:S:1:pos:R:3:initial_magmoms:R:1 pbc="T T T"
Si      -1.09004535       0.59360760       2.01729925       0.00000000
Si       1.95739011       1.19176011      -0.70161096       0.00000000
Si       0.31809483      -2.37612456       0.39207772       0.00000000
Si      -1.75752810       0.65754585      -1.55688748       0.00000000
Si      -3.19051053      -0.30641490       1.59728233       0.00000000
Si      -1.78901667      -3.39506406      -0.17513608       0.00000000
Si       2.74876061       2.45087937       1.18063738       0.00000000
Si      -1.73815929      -0.94763817      -3.34004115       0.00000000
Si      -1.16080911       2.93728248       2.27883350       0.00000000
Si      -3.90536460       0.51655590      -0.49629918       0.00000000
