10
Lattice="16.28999089631971 0.0 0.0 0.0 16.28999089631971 0.0 0.0 0.0 34.40785480372833" Properties=species:S:1:pos:R:3:initial_magmoms:R:1 pbc="T T T"
Si      -1.79284482      -0.87206886       1.17785034       0.00000000
Si      -1.39981599       1.34399016      -1.26793016       0.00000000
Si       1.32804225      -1.41740919      -1.26830864       0.00000000
Si       1.74757491       1.00273095       1.27377950       0.00000000
Si      -0.54454212      -2.06138547       2.77891754       0.00000000
Si       2.63251287      -2.57145795       0.40876554       0.00000000
Si      -0.03709233       2.67071292      -2.63137657       0.00000000
Si       2.67902082      -0.04357575      -2.63010348       0.00000000
Si       0.85151088       1.66083066       3.27697151       0.00000000
Si      -2.74782978      -0.04365720      -2.62783256       0.00000000
