10
Lattice="16.28999089631971 0.0 0.0 0.0 16.28999089631971 0.0 0.0 0.0 34.40785480372833" Properties=species:S:1:pos:R:3:initial_magmoms:R:1 pbc="T T T"
Si      -2.10046518      -0.90002250      -0.42001692       0.00000000
Si      -0.07076376       2.34367488       0.26153425       0.00000000
Si       1.09004535      -0.59360760      -2.01729925       0.00000000
Si       0.48153240      -0.89723691       2.14928785       0.00000000
Si      -3.13162218      -0.29905182       1.60987561       0.00000000
Si       2.35976940       0.29957310       2.67266602       0.00000000
Si      -0.66748275       0.06393825      -3.57418673       0.00000000
Si       1.40814018      -2.96973216      -1.62522152       0.00000000
Si      -2.81531925      -0.07705170      -2.51359842       0.00000000
Si      -0.49692645       2.77420329       2.55292662       0.00000000
