10
Lattice="16.28999089631971 0.0 0.0 0.0 16.28999089631971 0.0 0.0 0.0 34.40785480372833" Properties=species:S:1:pos:R:3:initial_magmoms:R:1 pbc="T T T"
Si      -1.40757003      -0.24700527      -1.93155482       0.00000000
Si       1.12273938       2.11722759      -0.19278732       0.00000000
Si       1.53256320      -1.82324196      -0.33936486       0.00000000
Si      -1.23515667      -0.17992305       2.14478042       0.00000000
Si      -2.01277611       2.05125309       1.72232054       0.00000000
Si       2.93366040      -0.86620446      -1.90977464       0.00000000
Si       0.90544707       2.47700853      -2.51934454       0.00000000
Si      -2.76744294      -2.00770992      -1.27013226       0.00000000
Si      -0.40330782       3.58308324       0.82472233       0.00000000
Si       1.62668682       0.39869775      -3.41026762       0.00000000
