10
Lattice="16.28999089631971 0.0 0.0 0.0 16.28999089631971 0.0 0.0 0.0 34.40785480372833" Properties=species:S:1:pos:R:3:initial_magmoms:R:1 pbc="T T T"
Si      -1.30256469      -1.35912357      -1.54017011       0.00000000
Si       0.56855358       1.93015716      -1.37091778       0.00000000
Si       1.21401225      -1.48405158       1.50186929       0.00000000
Si      -1.49418396       1.20674123       1.52884507       0.00000000
Si       2.40625033       2.59104572       0.09336577       0.00000000
Si      -2.41595361       0.29709702      -2.90846804       0.00000000
Si      -2.69910639      -2.68201818       0.06634182       0.00000000
Si      -2.92328937       2.50973418       0.20490233       0.00000000
Si       2.56807356      -0.13462056       2.89137279       0.00000000
Si      -0.14949333       2.58631999       2.89732536       0.00000000
