10
Lattice="16.28999089631971 0.0 0.0 0.0 16.28999089631971 0.0 0.0 0.0 34.40785480372833" Properties=species:S:1:pos:R:3:initial_magmoms:R:1 pbc="T T T"
Si      -1.35412254       1.35741312      -1.35708096       0.00000000
Si      -1.35529542      -1.35788553       1.35752826       0.00000000
Si       1.35959598       1.35702216       1.35745945       0.00000000
Si       1.36023129      -1.36080144      -1.36320556       0.00000000
Si       0.01619226       2.69315486      -2.72384085       0.00000000
Si      -2.71292031      -0.00011403       2.71491889       0.00000000
Si      -2.71171485       2.71632426       0.00075697       0.00000000
Si      -2.71339272      -2.71575477      -0.00024086       0.00000000
Si       0.00203625       2.71521466       2.71481567       0.00000000
Si       2.71516384       2.71502698      -0.00030967       0.00000000
