10
Lattice="16.28999089631971 0.0 0.0 0.0 16.28999089631971 0.0 0.0 0.0 34.40785480372833" Properties=species:S:1:pos:R:3:initial_magmoms:R:1 pbc="T T T"
Si      -2.00238309      -0.57886515       1.09926276       0.00000000
Si       1.55406600      -1.75490541      -0.41912231       0.00000000
Si      -0.95223195       0.90632673      -2.08532361       0.00000000
Si       2.11074417       0.48689181       1.38020305       0.00000000
Si       0.90448596      -3.65050755       0.84027469       0.00000000
Si      -2.77210188       2.37717268      -1.33299545       0.00000000
Si       3.79556578      -0.80132139       0.30141298       0.00000000
Si      -3.64360059       1.17573075       0.77555348       0.00000000
Si      -1.22205951       1.02420117       3.60997092       0.00000000
Si      -0.88009983      -1.45932336       3.69626587       0.00000000
