10
Lattice="16.28999089631971 0.0 0.0 0.0 16.28999089631971 0.0 0.0 0.0 34.40785480372833" Properties=species:S:1:pos:R:3:initial_magmoms:R:1 pbc="T T T"
Si       2.11497210       0.10437003      -0.96118396       0.00000000
Si      -0.67227201      -2.03359473       0.95647008       0.00000000
Si      -0.59411259       1.70930548       1.53682769       0.00000000
Si      -1.29670029       0.21351303      -2.00463715       0.00000000
Si      -2.87109621      -1.11356811       1.36791944       0.00000000
Si      -1.38797316       3.08919392      -0.17513608       0.00000000
Si       2.19036873       2.40907013      -1.52375270       0.00000000
Si       3.41468441      -0.95586462       0.68282426       0.00000000
Si      -3.50275725      -0.28295730      -0.93764898       0.00000000
Si      -0.23506470      -1.26192114      -3.44797865       0.00000000
