10
Lattice="16.28999089631971 0.0 0.0 0.0 16.28999089631971 0.0 0.0 0.0 34.40785480372833" Properties=species:S:1:pos:R:3:initial_magmoms:R:1 pbc="T T T"
Si      -0.96980886      -1.19956302      -1.78267195       0.00000000
Si       1.11338892      -1.65622059       1.36829793       0.00000000
Si       1.91472660       1.27836168      -0.78938545       0.00000000
Si      -1.74153132       1.05376037       1.49784357       0.00000000
Si       2.29750902      -2.25825012      -0.71320641       0.00000000
Si      -2.23863696      -2.53837296      -0.23521223       0.00000000
Si       0.30120210      -3.17226573      -1.75342526       0.00000000
Si       2.98450719       1.63306014       1.53755026       0.00000000
Si       2.41595361      -0.29709702       2.90846804       0.00000000
Si       3.30783111      -0.35316720      -1.92426036       0.00000000
