10
Lattice="16.28999089631971 0.0 0.0 0.0 16.28999089631971 0.0 0.0 0.0 34.40785480372833" Properties=species:S:1:pos:R:3:initial_magmoms:R:1 pbc="T T T"
Si       1.91177811      -0.32676111      -1.36791944       0.00000000
Si      -2.00473374       0.45924768      -1.19952730       0.00000000
Si       0.31253994       2.30270553       0.55135177       0.00000000
Si      -0.11134215      -1.65837087       1.77678821       0.00000000
Si      -1.09159290       1.74706992       3.23103700       0.00000000
Si      -3.24805970       2.03856318       0.17107595       0.00000000
Si       2.05107390       2.46645261       2.14367937       0.00000000
Si       1.91192472      -1.29191103       3.10066557       0.00000000
Si       1.52537931       0.51859215      -3.51603742       0.00000000
Si       1.06873803       3.51852597      -1.35092195       0.00000000
