10
Lattice="16.28999089631971 0.0 0.0 0.0 16.28999089631971 0.0 0.0 0.0 34.40785480372833" Properties=species:S:1:pos:R:3:initial_magmoms:R:1 pbc="T T T"
Si      -1.26999658       1.45482732       1.30626053       0.00000000
Si       1.34051224       1.35422028      -1.35601432       0.00000000
Si      -1.37793756      -1.35646830      -1.35243590       0.00000000
Si       1.30363169      -1.28560680       1.53665565       0.00000000
Si      -2.30938347      -0.31016160       2.55144708       0.00000000
Si      -0.53213240      -2.02869144       3.02582844       0.00000000
Si       2.67692755      -2.71513575       0.03337564       0.00000000
Si       2.69549815       0.00148239      -2.71361139       0.00000000
Si       2.70556537       2.70716994       0.00378487       0.00000000
Si      -0.01577035       2.71492398      -2.71264797       0.00000000
