10
Lattice="16.28999089631971 0.0 0.0 0.0 16.28999089631971 0.0 0.0 0.0 34.40785480372833" Properties=species:S:1:pos:R:3:initial_magmoms:R:1 pbc="T T T"
Si      -0.70449363      -1.72271637      -1.55595847       0.00000000
Si       1.34447886       1.30860828      -1.57078827       0.00000000
Si       1.60821396      -0.47190501       1.86824434       0.00000000
Si      -2.20511377       0.20756718       1.31176579       0.00000000
Si      -0.18171495      -2.00246454       2.59084410       0.00000000
Si      -1.10409873      -0.20408112      -3.44825391       0.00000000
Si      -0.19541484      -3.61048302       0.87977493       0.00000000
Si       1.20871800      -3.05484741      -1.79991030       0.00000000
Si       3.61199799      -0.85542048       0.66345263       0.00000000
Si       3.58987617       0.91627992      -0.95777758       0.00000000
