10
Lattice="16.28999089631971 0.0 0.0 0.0 16.28999089631971 0.0 0.0 0.0 34.40785480372833" Properties=species:S:1:pos:R:3:initial_magmoms:R:1 pbc="T T T"
Si      -1.35588579      -1.35640314      -1.35728741       0.00000000
Si       1.35717203      -1.35690813       1.35742504       0.00000000
Si       1.35814943       1.35742941      -1.35701214       0.00000000
Si      -1.35798782       1.35759231       1.35742504       0.00000000
Si       2.71341227       0.00133578       2.71381784       0.00000000
Si       0.00338832       2.70979263      -2.71884139       0.00000000
Si       2.71364033       0.00307881      -2.71522856       0.00000000
Si      -2.71512339       0.00063531       2.71398988       0.00000000
Si       2.71474805      -2.71456560      -0.00055053       0.00000000
Si       2.71448741       2.71484253       0.00034408       0.00000000
