10
Lattice="16.28999089631971 0.0 0.0 0.0 16.28999089631971 0.0 0.0 0.0 34.40785480372833" Properties=species:S:1:pos:R:3:initial_magmoms:R:1 pbc="T T T"
Si      -1.18514311       0.97924077      -1.68323320       0.00000000
Si      -2.18353929      -0.58290507       0.94848746       0.00000000
Si       1.37145510      -1.64695158      -1.32766223       0.00000000
Si       0.73332693       1.98506682       1.39121357       0.00000000
Si      -1.44707980      -2.12203314       2.59290857       0.00000000
Si       0.23716611       2.27685267      -2.99513662       0.00000000
Si      -2.48958816      -0.42959988      -3.02042641       0.00000000
Si       2.84923503      -0.36463536      -2.76653070       0.00000000
Si      -0.87545718       2.44882913       3.12437259       0.00000000
Si       2.59967223       1.62771309       2.79343766       0.00000000
