10
Lattice="16.28999089631971 0.0 0.0 0.0 16.28999089631971 0.0 0.0 0.0 34.40785480372833" Properties=species:S:1:pos:R:3:initial_magmoms:R:1 pbc="T T T"
Si       1.26999658      -1.45482732      -1.30626053       0.00000000
Si      -1.47001304       1.26636831      -1.29428659       0.00000000
Si       1.30444504       1.40884065       1.33719321       0.00000000
Si      -1.03938689      -1.76498892       1.24518655       0.00000000
Si       2.61050883      -0.10060704      -2.66227485       0.00000000
Si      -0.11005063       2.62016691      -2.65628788       0.00000000
Si       2.57362827      -2.74043412       0.23039512       0.00000000
Si      -2.76008330       2.62749555       0.18446061       0.00000000
Si       2.72675427       2.70645255       0.02528979       0.00000000
Si      -0.10794098      -2.81129562      -2.65869643       0.00000000
