10
Lattice="16.28999089631971 0.0 0.0 0.0 16.28999089631971 0.0 0.0 0.0 34.40785480372833" Properties=species:S:1:pos:R:3:initial_magmoms:R:1 pbc="T T T"
Si      -1.27226040       1.95124878       0.37600925       0.00000000
Si      -0.22170690      -1.39520592       1.93712890       0.00000000
Si      -1.45014232      -0.86358177      -1.71481963       0.00000000
Si       2.27035359       0.78521058      -0.44633894       0.00000000
Si       1.98040788      -2.42290944      -1.39461995       0.00000000
Si      -0.30242385      -2.86734951      -2.23207320       0.00000000
Si       0.96826131      -0.31210011       3.71790842       0.00000000
Si      -3.56696333       1.58819355       0.01149223       0.00000000
Si       0.93063141      -3.44706174       1.66747439       0.00000000
Si      -0.87851970       3.70728050      -1.18335560       0.00000000
