10
Lattice="10.86 0.0 0.0 0.0 10.86 0.0 0.0 0.0 10.86" Properties=species:S:1:pos:R:3:initial_magmoms:R:1 pbc="T T T"
Si       1.35750000       1.35750000       1.35750000       0.00000000
Si      -1.35750000      -1.35750000       1.35750000       0.00000000
Si      -1.35750000       1.35750000      -1.35750000       0.00000000
Si       1.35750000      -1.35750000      -1.35750000       0.00000000
Si      -2.60449950       2.61711882      -0.06305316       0.00000000
Si       0.08084184      -2.52542784       2.72478486       0.00000000
Si       0.06699534       2.58739500      -2.67697914       0.00000000
Si       2.72647902      -2.56682616       0.15587358       0.00000000
Si       2.84819790       2.50718304       0.46116990       0.00000000
Si      -2.71500000       0.00000000       2.71500000       0.00000000
