10
Lattice="10.86 0.0 0.0 0.0 10.86 0.0 0.0 0.0 10.86" Properties=species:S:1:pos:R:3:initial_magmoms:R:1 pbc="T T T"
Si       1.25058330      -1.42735152       1.47261600       0.00000000
Si      -1.59505164       0.89035710       1.65177342       0.00000000
Si      -0.02989758       1.57422216      -1.99675218       0.00000000
Si      -1.51982442      -1.67417760      -1.17334698       0.00000000
Si       2.44217508      -2.93379642       0.24720618       0.00000000
Si      -0.27282492      -2.93379642      -2.46779382       0.00000000
Si       2.44217508      -0.21879642       2.96220618       0.00000000
Si      -2.98782492      -0.21879642      -2.46779382       0.00000000
Si      -0.27282492       2.49620358       2.96220618       0.00000000
Si      -2.98782492       2.49620358       0.24720618       0.00000000
