10
Lattice="10.86 0.0 0.0 0.0 10.86 0.0 0.0 0.0 10.86" Properties=species:S:1:pos:R:3:initial_magmoms:R:1 pbc="T T T"
Si      -1.32642954       1.36184400      -1.32426840       0.00000000
Si       1.38857046      -1.35315600      -1.32426840       0.00000000
Si       1.38857046       1.36184400       1.39073160       0.00000000
Si      -1.86745302       0.55026534       2.68047606       0.00000000
Si      -0.09221226       2.57518836       2.60697558       0.00000000
Si      -2.68392954       0.00434400      -2.68176840       0.00000000
Si       0.03107046      -2.71065600      -2.68176840       0.00000000
Si       0.03107046       2.71934400      -2.68176840       0.00000000
Si      -2.70034986       2.71248048       0.02678076       0.00000000
Si       2.74607046       0.00434400      -2.68176840       0.00000000
