10
Lattice="10.86 0.0 0.0 0.0 10.86 0.0 0.0 0.0 10.86" Properties=species:S:1:pos:R:3:initial_magmoms:R:1 pbc="T T T"
Si       1.32642954      -1.36184400       1.32426840       0.00000000
Si       1.35750000       1.35750000      -1.35750000       0.00000000
Si      -1.35750000      -1.35750000      -1.35750000       0.00000000
Si      -1.37392032       1.35063648       1.35104916       0.00000000
Si      -2.61546810      -0.20270190       2.73968478       0.00000000
Si       0.00000000      -2.71500000      -2.71500000       0.00000000
Si      -2.71500000       0.00000000      -2.71500000       0.00000000
Si      -2.71500000       2.71500000       0.00000000       0.00000000
Si       0.00000000       2.71500000      -2.71500000       0.00000000
Si       2.71500000      -2.71500000       0.00000000       0.00000000
