10
Lattice="10.86 0.0 0.0 0.0 10.86 0.0 0.0 0.0 10.86" Properties=species:S:1:pos:R:3:initial_magmoms:R:1 pbc="T T T"
Si      -2.07444462       0.60887676      -1.26505968       0.00000000
Si       1.77524076       2.02492302      -0.07350048       0.00000000
Si       1.86745302      -0.55026534      -2.68047606       0.00000000
Si      -0.83289684       2.16221514      -2.65369530       0.00000000
Si       1.91509584      -0.69538752       2.90217210       0.00000000
Si       3.25602348       0.81157866      -1.28974446       0.00000000
Si      -0.93896646       2.16917640       2.77146114       0.00000000
Si       1.82879142      -3.26110596       0.14152752       0.00000000
Si       0.54102348       3.52657866      -1.28974446       0.00000000
Si       3.25602348      -1.90342134       1.42525554       0.00000000
