10
Lattice="10.86 0.0 0.0 0.0 10.86 0.0 0.0 0.0 10.86" Properties=species:S:1:pos:R:3:initial_magmoms:R:1 pbc="T T T"
Si      -1.37407236      -1.20803382       1.23808344       0.00000000
Si       1.34092764      -1.20803382      -1.47691656       0.00000000
Si       1.34092764       1.50696618       1.23808344       0.00000000
Si      -1.91509584       0.69538752      -2.90217210       0.00000000
Si      -0.01657236      -2.56553382       2.59558344       0.00000000
Si       2.69842764      -2.56553382      -0.11941656       0.00000000
Si       2.69842764       0.14946618       2.59558344       0.00000000
Si      -0.08630442      -2.56571844      -2.76064458       0.00000000
Si      -2.73157236       0.14946618       2.59558344       0.00000000
Si      -2.67615378      -2.68370148      -0.08507724       0.00000000
