10
Lattice="16.28999089631971 0.0 0.0 0.0 16.28999089631971 0.0 0.0 0.0 34.51877397758722" Properties=species:S:1:pos:R:3:initial_magmoms:R:1 pbc="T T T"
Si       1.52764362      -1.10481712      -1.46677256       0.00000000
Si       1.59995493       1.44129033       1.14112227       0.00000000
Si      -1.33568878       1.60651980      -1.52041477       0.00000000
Si      -0.15123636      -1.89452048       2.16139424       0.00000000
Si       3.34464651      -1.82059809       0.01712132       0.00000000
Si      -2.44094966      -0.00744453      -2.92971354       0.00000000
Si      -3.01683374       2.03813964       1.46370039       0.00000000
Si       1.06124463       1.47196440       3.50527990       0.00000000
Si       0.47902374      -2.64765068      -2.91877108       0.00000000
Si       0.22486716       2.62985760      -3.00161619       0.00000000
