10
Lattice="16.28999089631971 0.0 0.0 0.0 16.28999089631971 0.0 0.0 0.0 34.51877397758722" Properties=species:S:1:pos:R:3:initial_magmoms:R:1 pbc="T T T"
Si       1.35933534       1.34794863       1.37820079       0.00000000
Si       1.48776570      -1.24317949      -1.34422740       0.00000000
Si      -1.35264015      -1.37234779       1.37740686       0.00000000
Si      -1.38253230       1.32437700      -1.53579289       0.00000000
Si       0.13214448      -2.40578539      -2.87794713       0.00000000
Si      -2.70879894       2.69635338      -0.00500868       0.00000000
Si       2.70682785       2.71518462       0.00908880       0.00000000
Si      -2.70915732      -2.72201732       0.00331726       0.00000000
Si       0.00555489       2.70216891       2.73806865       0.00000000
Si      -2.70915732      -0.01262475       2.73751635       0.00000000
