10
Lattice="16.28999089631971 0.0 0.0 0.0 16.28999089631971 0.0 0.0 0.0 34.51877397758722" Properties=species:S:1:pos:R:3:initial_magmoms:R:1 pbc="T T T"
Si       1.04861988       1.54283356       1.45199852       0.00000000
Si       1.31018841      -1.36616364      -1.46166378       0.00000000
Si      -1.42460448       1.33175588      -1.44046924       0.00000000
Si      -0.32096187      -1.68057693       1.82469793       0.00000000
Si       2.66602140       2.61194300      -0.01542990       0.00000000
Si       2.77333992      -2.59796457      -0.07052189       0.00000000
Si       2.65997781      -0.01842678      -2.83178372       0.00000000
Si      -0.05134608       2.69687906      -2.82405151       0.00000000
Si      -0.05859513      -2.73167289      -2.82812473       0.00000000
Si      -2.91997340       2.64020615      -0.01094246       0.00000000
