10
Lattice="16.28999089631971 0.0 0.0 0.0 16.28999089631971 0.0 0.0 0.0 34.51877397758722" Properties=species:S:1:pos:R:3:initial_magmoms:R:1 pbc="T T T"
Si      -1.73104056      -0.84506004      -1.38496302       0.00000000
Si       0.94903911       1.86821865      -1.21778851       0.00000000
Si      -0.91476495      -0.31136706       2.32415035       0.00000000
Si       1.94294088      -1.67317848      -0.05995914       0.00000000
Si      -1.53143919      -2.62995045       1.56635928       0.00000000
Si      -0.39052017      -2.11806490      -2.85373768       0.00000000
Si       2.33675163       0.60865956      -2.81055467       0.00000000
Si       1.02263733      -3.32275487      -1.49859889       0.00000000
Si      -3.34844208      -1.91416948       0.08246540       0.00000000
Si       3.64430106      -0.79350219      -1.41054145       0.00000000
