10
Lattice="16.28999089631971 0.0 0.0 0.0 16.28999089631971 0.0 0.0 0.0 34.51877397758722" Properties=species:S:1:pos:R:3:initial_magmoms:R:1 pbc="T T T"
Si      -0.61667424      -2.31858339      -0.75779107       0.00000000
Si       0.91476495       0.31136706      -2.32415035       0.00000000
Si      -2.36136582       0.94330503       0.36620988       0.00000000
Si       0.90202617       0.74559330       2.45490754       0.00000000
Si      -2.43367713      -1.60280242      -2.24168495       0.00000000
Si      -0.81627561      -0.53369298      -3.70911337       0.00000000
Si      -0.90552852       2.06443170       3.15712335       0.00000000
Si      -2.17864089       3.21299073      -0.39524018       0.00000000
Si      -0.77766831      -3.65924618       1.20270380       0.00000000
Si       2.85770583      -1.36181142      -2.38410949       0.00000000
