10
Lattice="16.28999089631971 0.0 0.0 0.0 16.28999089631971 0.0 0.0 0.0 34.51877397758722" Properties=species:S:1:pos:R:3:initial_magmoms:R:1 pbc="T T T"
Si       1.37007045       1.32968754       1.37298500       0.00000000
Si      -1.35676152       1.35679410      -1.36093794       0.00000000
Si       1.35659862      -1.36019871      -1.36093794       0.00000000
Si      -1.35485559      -1.36503684       1.38088981       0.00000000
Si       2.71150308      -2.71339272       0.00069038       0.00000000
Si      -2.71692765       2.70943425       0.00317573       0.00000000
Si       2.71559187       2.71166598      -0.00165690       0.00000000
Si      -2.71226871      -2.71653669       0.00214017       0.00000000
Si      -0.00004887       2.71298547      -2.71749200       0.00000000
Si       2.71443528      -0.00167787      -2.71711229       0.00000000
