10
Lattice="16.28999089631971 0.0 0.0 0.0 16.28999089631971 0.0 0.0 0.0 34.51877397758722" Properties=species:S:1:pos:R:3:initial_magmoms:R:1 pbc="T T T"
Si       1.35741312      -1.35527913      -1.35821096       0.00000000
Si      -1.35883035       1.35912357      -1.35872874       0.00000000
Si       1.36394541       1.34778573       1.37446931       0.00000000
Si      -1.34552142      -1.38197844       1.37464190       0.00000000
Si      -2.64199365       0.00788436       2.72670852       0.00000000
Si       2.71186146      -2.71437012       0.00317573       0.00000000
Si      -2.71559187      -2.71166598       0.00165690       0.00000000
Si      -0.00115659      -2.71334385      -2.71545539       0.00000000
Si       2.71437012       0.00158013      -2.71569702       0.00000000
Si      -2.71564074       0.00131949      -2.71583510       0.00000000
