10
Lattice="16.28999089631971 0.0 0.0 0.0 16.28999089631971 0.0 0.0 0.0 34.51877397758722" Properties=species:S:1:pos:R:3:initial_magmoms:R:1 pbc="T T T"
Si       1.96959132       0.27023481       1.15593083       0.00000000
Si      -1.78243551       1.26985437       0.72151182       0.00000000
Si       0.06972120       0.60403320      -2.23961383       0.00000000
Si      -0.52862679      -2.10492864       1.00760358       0.00000000
Si      -1.80173916      -0.95636961      -2.54475996       0.00000000
Si      -2.77793370       0.94726350      -1.49670036       0.00000000
Si       2.93612589      -1.63913238       0.04494347       0.00000000
Si      -0.94361454      -1.29697722       3.15757210       0.00000000
Si       1.18006389      -0.30589362       3.33513677       0.00000000
Si       1.27892790      -3.42376704       0.30538776       0.00000000
