10
Lattice="16.28999089631971 0.0 0.0 0.0 16.28999089631971 0.0 0.0 0.0 34.51877397758722" Properties=species:S:1:pos:R:3:initial_magmoms:R:1 pbc="T T T"
Si       0.41498775      -0.80795142      -2.14996852       0.00000000
Si       2.12367843       0.99108360       0.17756467       0.00000000
Si      -1.84588506       1.25724591      -0.74805677       0.00000000
Si       0.08092872      -1.93420944       1.35099653       0.00000000
Si       3.23649720      -1.08993132       0.68864993       0.00000000
Si       0.94361454       1.29697722      -3.15757210       0.00000000
Si       1.08655929      -0.88443297       3.25270589       0.00000000
Si      -1.57955985      -1.89840402      -2.57672436       0.00000000
Si       1.54054530       2.83661028       1.57550676       0.00000000
Si      -0.83882097       2.56683159      -2.43606028       0.00000000
