10
Lattice="16.28999089631971 0.0 0.0 0.0 16.28999089631971 0.0 0.0 0.0 34.51877397758722" Properties=species:S:1:pos:R:3:initial_magmoms:R:1 pbc="T T T"
Si       0.04544910      -0.78649749      -2.28942444       0.00000000
Si       0.94876218      -1.84231755       1.31699552       0.00000000
Si      -2.01650652       0.98267796       1.12054907       0.00000000
Si       1.51242876       2.02756743      -0.01912341       0.00000000
Si       1.90772190      -0.23998428       2.79176060       0.00000000
Si       2.24253027      -0.16909020      -2.81179734       0.00000000
Si      -0.78454269       2.49359175       2.52308703       0.00000000
Si       3.26236572       0.99189810       1.28516919       0.00000000
Si      -1.97838792      -0.09780516      -3.19937435       0.00000000
Si      -2.10473316       2.04890733      -2.41886992       0.00000000
