10
Lattice="16.28999089631971 0.0 0.0 0.0 16.28999089631971 0.0 0.0 0.0 34.51877397758722" Properties=species:S:1:pos:R:3:initial_magmoms:R:1 pbc="T T T"
Si      -0.25718652      -0.40716855       2.36212102       0.00000000
Si       1.12519917      -1.87535367      -1.13767039       0.00000000
Si      -2.21583096       0.01213605      -1.09469449       0.00000000
Si       0.26909451       2.53602720       0.16196218       0.00000000
Si       2.98955709      -0.88394427       1.23829267       0.00000000
Si       1.35422028       2.48025024      -2.05818305       0.00000000
Si       3.23784927      -0.91238661      -1.27022255       0.00000000
Si       1.50491907      -2.02375557       2.73568340       0.00000000
Si       1.41701823       2.82830238       2.20537118       0.00000000
Si       2.29306185       0.32250942      -3.09958052       0.00000000
