10
Lattice="16.28999089631971 0.0 0.0 0.0 16.28999089631971 0.0 0.0 0.0 34.51877397758722" Properties=species:S:1:pos:R:3:initial_magmoms:R:1 pbc="T T T"
Si       0.58313313      -1.84552668      -1.39794209       0.00000000
Si      -0.78012810      -1.35959598       1.86080459       0.00000000
Si       1.80372654       1.63543455       0.20511067       0.00000000
Si      -1.86408099       1.33460712      -0.85247612       0.00000000
Si      -1.54054530      -2.83661028      -1.57550676       0.00000000
Si       3.44065977       0.68115006      -1.23963890       0.00000000
Si      -3.01125537      -0.56176065       2.25704582       0.00000000
Si      -2.15034516       3.04842915       0.80456403       0.00000000
Si       0.49021497      -0.60602058       3.74304535       0.00000000
Si      -1.72573002       1.85039739      -3.13751668       0.00000000
