10
Lattice="16.28999089631971 0.0 0.0 0.0 16.28999089631971 0.0 0.0 0.0 34.51877397758722" Properties=species:S:1:pos:R:3:initial_magmoms:R:1 pbc="T T T"
Si      -1.27173586       1.33172379       1.42075901       0.00000000
Si       2.04263568      -0.62672517       0.98637452       0.00000000
Si       0.74850921       1.36738260      -1.80591971       0.00000000
Si      -0.85154998      -2.07675997      -0.84533073       0.00000000
Si      -1.80445633      -1.36774098      -2.89022404       0.00000000
Si       0.38255436       2.84495076       2.29774347       0.00000000
Si      -0.40558353       0.44562924      -3.66648266       0.00000000
Si       3.05549901       0.80501922      -1.97471661       0.00000000
Si      -2.43581831      -2.73389206       0.80950022       0.00000000
Si       3.61579356       1.01709873       0.28906037       0.00000000
