10
Lattice="16.28999089631971 0.0 0.0 0.0 16.28999089631971 0.0 0.0 0.0 34.51877397758722" Properties=species:S:1:pos:R:3:initial_magmoms:R:1 pbc="T T T"
Si      -2.13257277      -0.64335726      -0.79800546       0.00000000
Si       0.16099407       1.34066278      -1.96049486       0.00000000
Si      -0.23798061       1.09499818       2.11223948       0.00000000
Si       1.94931027      -1.41170769      -0.15892452       0.00000000
Si      -3.33488880       1.26674039       0.18377806       0.00000000
Si      -0.44233866      -0.77634882       3.53852150       0.00000000
Si       3.09723399      -1.11943251       1.88448448       0.00000000
Si       1.26082971      -0.40094577      -3.55954344       0.00000000
Si      -2.39187699      -2.99586132      -0.18533140       0.00000000
Si      -2.31220260       2.32134848       2.10364430       0.00000000
