10
Lattice="16.28999089631971 0.0 0.0 0.0 16.28999089631971 0.0 0.0 0.0 34.51877397758722" Properties=species:S:1:pos:R:3:initial_magmoms:R:1 pbc="T T T"
Si      -1.41315750       1.20468997      -1.35513879       0.00000000
Si      -1.45424088      -1.04880414       1.46590959       0.00000000
Si       0.92030355       1.64957639       1.43863975       0.00000000
Si       1.30582269      -1.50309966      -1.32766183       0.00000000
Si       1.87794378      -0.32360592       2.41013666       0.00000000
Si       0.31936545      -2.11534302       2.64638329       0.00000000
Si       2.62166373       2.52925268       0.08805744       0.00000000
Si      -2.75367789       2.47769483       0.11363587       0.00000000
Si      -0.04727358       2.56577486      -2.69643554       0.00000000
Si      -1.02263733       3.32275487       1.49859889       0.00000000
