10
Lattice="16.28999089631971 0.0 0.0 0.0 16.28999089631971 0.0 0.0 0.0 34.51877397758722" Properties=species:S:1:pos:R:3:initial_magmoms:R:1 pbc="T T T"
Si      -2.00248083      -1.28013010       0.33994108       0.00000000
Si       0.12336417       1.28826207       2.04109625       0.00000000
Si       1.77334569      -1.63793832       0.14352914       0.00000000
Si       0.73539576       1.76803515      -1.49718362       0.00000000
Si      -1.62425961      -1.83429440       2.64724626       0.00000000
Si       2.99801160      -0.54049080       2.07264642       0.00000000
Si       2.38365054       1.70973324       2.29128846       0.00000000
Si       3.09650094       1.48007682      -1.45130814       0.00000000
Si      -0.18143802       3.71732913      -0.47042211       0.00000000
Si       0.92198142      -3.34952441      -1.57564484       0.00000000
