10
Lattice="16.28999089631971 0.0 0.0 0.0 16.28999089631971 0.0 0.0 0.0 34.51877397758722" Properties=species:S:1:pos:R:3:initial_magmoms:R:1 pbc="T T T"
Si      -1.35741312       1.35527913       1.35821096       0.00000000
Si       1.35695700       1.35685926      -1.35748606       0.00000000
Si      -1.35856971      -1.35806472      -1.35724443       0.00000000
Si       1.35444834      -1.35909099       1.36138669       0.00000000
Si      -0.00014661       2.71415835      -2.71500665       0.00000000
Si       2.71407690      -0.00055386      -2.71528280       0.00000000
Si       2.71477737       2.71487511      -0.00075941       0.00000000
Si      -2.71624347       2.71440270      -0.00051778       0.00000000
Si      -0.00114030      -2.71599912      -2.71486857       0.00000000
Si      -2.71585251      -0.00079821      -2.71531732       0.00000000
