10
Lattice="16.28999089631971 0.0 0.0 0.0 16.28999089631971 0.0 0.0 0.0 34.51877397758722" Properties=species:S:1:pos:R:3:initial_magmoms:R:1 pbc="T T T"
Si       1.68770916      -1.68894720      -0.14981156       0.00000000
Si      -0.93755466       0.92745486      -1.99946658       0.00000000
Si       2.08266021       1.36415718       0.20176235       0.00000000
Si      -1.32781419      -0.31806225       2.29242758       0.00000000
Si       0.83041533      -0.42003765       3.16409615       0.00000000
Si       1.74724911      -2.36933163       2.13733464       0.00000000
Si       2.18242017       1.47771477       2.58369716       0.00000000
Si       3.70486728      -0.31956093      -0.43662822       0.00000000
Si      -2.02323429      -0.66870450      -3.44397452       0.00000000
Si       0.59649093       2.18701395      -3.40748816       0.00000000
