10
Lattice="16.28999089631971 0.0 0.0 0.0 16.28999089631971 0.0 0.0 0.0 34.51877397758722" Properties=species:S:1:pos:R:3:initial_magmoms:R:1 pbc="T T T"
Si      -1.35716877      -1.35751086      -1.35883230       0.00000000
Si       1.35786924       1.35728280      -1.35893585       0.00000000
Si      -1.35918873       1.35873261       1.35779673       0.00000000
Si       1.36026387      -1.35843939       1.35783125       0.00000000
Si       2.70226665       0.02156796       2.72229011       0.00000000
Si       2.71378368       2.71446786      -0.00214017       0.00000000
Si       2.71559187      -2.71437012      -0.00162238       0.00000000
Si      -2.71542897      -2.71484253      -0.00138075       0.00000000
Si       0.00003258       2.71515204      -2.71580058       0.00000000
Si       0.00066789      -2.71508688      -2.71586962       0.00000000
