10
Lattice="16.28999089631971 0.0 0.0 0.0 16.28999089631971 0.0 0.0 0.0 34.51877397758722" Properties=species:S:1:pos:R:3:initial_magmoms:R:1 pbc="T T T"
Si       1.30541544      -1.42459308      -1.31930828       0.00000000
Si      -1.41986898       1.31030244      -1.32821413       0.00000000
Si       1.24286184       1.25369469       1.60999104       0.00000000
Si      -0.81901233      -2.44578060       1.90823341       0.00000000
Si       2.56974750       2.64546342       0.12692560       0.00000000
Si       0.07499916      -0.94416840       3.57190117       0.00000000
Si       2.53078182      -2.71652040       0.32230197       0.00000000
Si       2.65833252      -0.05685210      -2.69329433       0.00000000
Si      -0.06112008       2.66031990      -2.69332884       0.00000000
Si       3.41311338      -0.78825681       1.48227150       0.00000000
