10
Lattice="16.28999089631971 0.0 0.0 0.0 16.28999089631971 0.0 0.0 0.0 34.51877397758722" Properties=species:S:1:pos:R:3:initial_magmoms:R:1 pbc="T T T"
Si      -1.03584852      -1.87238889      -0.96587035       0.00000000
Si       0.46027395       1.87988229      -1.39103833       0.00000000
Si      -2.03365989       0.79175916       1.00781069       0.00000000
Si       1.79817165      -0.29455578       1.79166345       0.00000000
Si       2.95459875       1.80343332       1.20291091       0.00000000
Si       2.84226291       1.95278004      -1.25537947       0.00000000
Si      -2.61389340      -0.93890673      -2.54472544       0.00000000
Si      -0.81733446       3.66497307      -0.49824426       0.00000000
Si      -2.17153845      -3.01120650       0.78820213       0.00000000
Si      -1.44994032       2.28477024       2.92557129       0.00000000
