10
Lattice="16.28999089631971 0.0 0.0 0.0 16.28999089631971 0.0 0.0 0.0 34.51877397758722" Properties=species:S:1:pos:R:3:initial_magmoms:R:1 pbc="T T T"
Si      -1.35369900      -1.35597308       1.35965730       0.00000000
Si       1.36209391       1.35703845       1.36145227       0.00000000
Si      -1.45300284       1.31088888      -1.32097208       0.00000000
Si       1.31958189      -1.37791897      -1.40619899       0.00000000
Si       2.53590407       0.02456532      -2.86535467       0.00000000
Si       2.71713032      -2.70812195      -0.01367289       0.00000000
Si       2.71748870       2.71024875      -0.02199883       0.00000000
Si       0.00268828      -2.71400147       2.72056072       0.00000000
Si      -2.71448415       0.00162900       2.72066428       0.00000000
Si       0.00253620       2.71609686       2.71993938       0.00000000
