10
Lattice="16.28999089631971 0.0 0.0 0.0 16.28999089631971 0.0 0.0 0.0 34.51877397758722" Properties=species:S:1:pos:R:3:initial_magmoms:R:1 pbc="T T T"
Si      -1.35676152      -1.35801585       1.35738251       0.00000000
Si       1.35900954       1.35677781       1.35724443       0.00000000
Si      -1.35842310       1.35850455      -1.35638146       0.00000000
Si       1.36078515      -1.35760208      -1.36100698       0.00000000
Si      -2.70599706      -0.00058644      -2.70730205       0.00000000
Si      -2.71446786       2.71282257       0.00096653       0.00000000
Si      -2.71412577      -0.00068418       2.71428175       0.00000000
Si       0.00136836       2.71420722       2.71421271       0.00000000
Si      -2.71399545      -2.71528955       0.00020711       0.00000000
Si       0.00104256      -2.71580089       2.71438531       0.00000000
