10
Lattice="16.28999089631971 0.0 0.0 0.0 16.28999089631971 0.0 0.0 0.0 34.51877397758722" Properties=species:S:1:pos:R:3:initial_magmoms:R:1 pbc="T T T"
Si      -0.26836146       2.35691213       0.11960762       0.00000000
Si       1.98015931      -1.30521737       0.14556575       0.00000000
Si      -0.29880747      -0.50854448      -2.32780934       0.00000000
Si      -1.59151671      -0.76110301       1.71444491       0.00000000
Si       0.74977983      -2.64836045      -1.53833002       0.00000000
Si      -2.44288098      -2.47268909      -0.00472907       0.00000000
Si      -2.50781292      -1.31416058      -2.08510771       0.00000000
Si      -0.36685080       0.33634452       3.64356219       0.00000000
Si      -2.62946664       2.64487046       0.07373214       0.00000000
Si      -3.36486240       0.87683531       1.57091576       0.00000000
