10
Lattice="16.28999089631971 0.0 0.0 0.0 16.28999089631971 0.0 0.0 0.0 34.51877397758722" Properties=species:S:1:pos:R:3:initial_magmoms:R:1 pbc="T T T"
Si      -1.89089433       1.43179326      -0.38906132       0.00000000
Si      -0.50248134      -2.32968896       0.31867750       0.00000000
Si       1.45412685       0.11383452      -1.91924491       0.00000000
Si       0.40948173       0.72301536       2.30091920       0.00000000
Si       0.23223024       3.02994000       1.44319623       0.00000000
Si      -1.84243158      -0.01640403       3.07179289       0.00000000
Si      -2.09264598      -2.16677982       2.06532844       0.00000000
Si       0.35838000      -1.33167492      -3.49478619       0.00000000
Si      -2.88249921       1.87634736       1.73936747       0.00000000
Si       1.51775559      -3.42400229       1.08620287       0.00000000
