10
Lattice="16.28999089631971 0.0 0.0 0.0 16.28999089631971 0.0 0.0 0.0 34.51877397758722" Properties=species:S:1:pos:R:3:initial_magmoms:R:1 pbc="T T T"
Si       2.30598701       0.71193816       0.31912624       0.00000000
Si       0.28984797      -1.12770783      -2.16943712       0.00000000
Si      -1.37893221       2.07513423      -0.63497320       0.00000000
Si       1.05350688      -1.55305602       1.95690491       0.00000000
Si      -1.84738374       1.68296877       1.86943429       0.00000000
Si       2.00446725      -2.61866637      -1.34467959       0.00000000
Si      -2.06234658      -1.85098383      -2.38497246       0.00000000
Si       3.65875748      -1.10543940      -0.46769513       0.00000000
Si       1.84581568      -3.47255559       0.83735689       0.00000000
Si       1.52050113       0.31335444      -3.71194392       0.00000000
