10
Lattice="16.28999089631971 0.0 0.0 0.0 16.28999089631971 0.0 0.0 0.0 34.51877397758722" Properties=species:S:1:pos:R:3:initial_magmoms:R:1 pbc="T T T"
Si      -1.35739683      -1.35711990       1.35727895       0.00000000
Si       1.35783666       1.35799956       1.35738251       0.00000000
Si      -1.35640314       1.35957969      -1.35758962       0.00000000
Si       1.35601218      -1.35816246      -1.36062727       0.00000000
Si      -2.69811270      -0.03065778      -2.70525509       0.00000000
Si      -0.01194057      -2.69609274      -2.72188624       0.00000000
Si       0.00053757      -2.71497285       2.71452338       0.00000000
Si      -2.71451673       0.00029322       2.71507568       0.00000000
Si       2.71447896       2.71526607       0.00100105       0.00000000
Si       0.00061902       2.71497285       2.71483405       0.00000000
