10
Lattice="16.28999089631971 0.0 0.0 0.0 16.28999089631971 0.0 0.0 0.0 34.51877397758722" Properties=species:S:1:pos:R:3:initial_magmoms:R:1 pbc="T T T"
Si       1.81814319       0.80997138       1.37996267       0.00000000
Si      -1.79251902       1.65754008       0.37727802       0.00000000
Si      -0.91079019      -1.91741445       1.45928686       0.00000000
Si       0.46845153       0.39216546      -2.50440749       0.00000000
Si       1.84738374      -1.68296877      -1.86943429       0.00000000
Si       0.43328142       2.06324253       2.94060564       0.00000000
Si      -2.28301092      -0.67966767       2.95860374       0.00000000
Si      -0.81982683       3.43925883       1.52148972       0.00000000
Si      -3.55064985       0.62957592       1.52171064       0.00000000
Si       2.97450513       2.71306692       0.18022262       0.00000000
