10
Lattice="16.28999089631971 0.0 0.0 0.0 16.28999089631971 0.0 0.0 0.0 34.51877397758722" Properties=species:S:1:pos:R:3:initial_magmoms:R:1 pbc="T T T"
Si       1.67609995       0.95120568       1.30402478       0.00000000
Si       0.76234498       0.13551651      -2.23688684       0.00000000
Si      -1.15636194      -1.90309554       1.19974005       0.00000000
Si      -2.01694635       1.52676396      -0.13403647       0.00000000
Si       0.15883177       2.08512000       2.75043816       0.00000000
Si      -1.34962650      -0.22291236      -3.27338265       0.00000000
Si      -1.26846972       3.34112787       1.24498729       0.00000000
Si      -2.54122371      -0.64982439       2.76038302       0.00000000
Si       3.41103545       1.93541490      -0.07138486       0.00000000
Si       1.79399231      -1.77862365      -3.03972494       0.00000000
