10
Lattice="16.28999089631971 0.0 0.0 0.0 16.28999089631971 0.0 0.0 0.0 34.51877397758722" Properties=species:S:1:pos:R:3:initial_magmoms:R:1 pbc="T T T"
Si      -1.35769005      -1.35633798      -1.35707184       0.00000000
Si       1.35733167      -1.35690813       1.35734799       0.00000000
Si      -1.35770634       1.35808101       1.35700280       0.00000000
Si       1.35720135       1.35811359      -1.35772770       0.00000000
Si       0.00030951      -2.71230129      -2.71507568       0.00000000
Si       0.00001629      -2.71357191       2.71431627       0.00000000
Si       2.71454931      -2.71388142      -0.00010356       0.00000000
Si       2.71397916       0.00081450       2.71490309       0.00000000
Si      -0.00179190       2.71526607       2.71379849       0.00000000
Si      -2.71490769      -2.71428867       0.00006904       0.00000000
