10
Lattice="16.28999089631971 0.0 0.0 0.0 16.28999089631971 0.0 0.0 0.0 34.51877397758722" Properties=species:S:1:pos:R:3:initial_magmoms:R:1 pbc="T T T"
Si       1.43730484      -1.14196158      -1.47015541       0.00000000
Si      -0.90269406      -1.87419708       1.12406998       0.00000000
Si      -1.29943701       1.57441221      -1.44758011       0.00000000
Si       0.45480444       0.17531298       2.49881544       0.00000000
Si       2.50563725       1.27698939       1.80926803       0.00000000
Si       1.08472245      -3.23783298       1.39863247       0.00000000
Si       2.88872918      -2.39710608       0.03192988       0.00000000
Si       0.05640203      -2.48872104      -2.84086217       0.00000000
Si      -2.84511366      -2.57673591      -0.09534091       0.00000000
Si      -2.65655691       0.22385718      -2.84314041       0.00000000
