10
Lattice="16.28999089631971 0.0 0.0 0.0 16.28999089631971 0.0 0.0 0.0 34.51877397758722" Properties=species:S:1:pos:R:3:initial_magmoms:R:1 pbc="T T T"
Si       0.78885954      -1.86092073       1.12431162       0.00000000
Si      -1.85583825       0.95700492       1.06207423       0.00000000
Si       1.89886733       1.46717514       0.11915887       0.00000000
Si      -1.04190840      -0.33428709      -2.17212959       0.00000000
Si       1.50893848       2.35776573      -2.03074061       0.00000000
Si      -2.06273754       2.90188009      -0.46186145       0.00000000
Si       1.66460735      -1.04329305       3.14593926       0.00000000
Si      -3.63607461      -0.57173013       0.79562367       0.00000000
Si       2.45352554      -2.90970351      -0.21080627       0.00000000
Si      -2.91410181       1.19029401      -2.18103543       0.00000000
