10
Lattice="16.28999089631971 0.0 0.0 0.0 16.28999089631971 0.0 0.0 0.0 34.51877397758722" Properties=species:S:1:pos:R:3:initial_magmoms:R:1 pbc="T T T"
Si      -0.65526525       2.01354174       0.97187662       0.00000000
Si       1.84588506      -1.25724591       0.74805677       0.00000000
Si      -1.37891592      -1.61370369      -1.02600209       0.00000000
Si       1.00706409       1.30958568      -1.68800351       0.00000000
Si       2.26087281      -2.06519733      -1.40191175       0.00000000
Si       1.52234937       2.91397149       1.47108741       0.00000000
Si       0.26632521      -3.15564993      -1.82866759       0.00000000
Si       2.78949960       0.03973131      -2.40951533       0.00000000
Si      -1.42757415       1.51712028       3.07476151       0.00000000
Si       1.66070034       3.42976176      -0.81395315       0.00000000
