10
Lattice="16.28999089631971 0.0 0.0 0.0 16.28999089631971 0.0 0.0 0.0 34.51877397758722" Properties=species:S:1:pos:R:3:initial_magmoms:R:1 pbc="T T T"
Si      -1.35678414       1.35669636      -1.35755510       0.00000000
Si       1.35776747      -1.35793766      -1.35776221       0.00000000
Si       1.35857871       1.35821133       1.35734799       0.00000000
Si      -1.35833169      -1.35868374       1.35745155       0.00000000
Si      -2.71442532       2.71412577      -0.00058682       0.00000000
Si       2.71505515       2.71437012      -0.00027615       0.00000000
Si       0.00122666       2.71438641      -2.71552443       0.00000000
Si      -2.71579368      -0.00008145      -2.71479953       0.00000000
Si       0.00137874      -2.71571192      -2.71490309       0.00000000
Si      -2.71475112      -2.71588234      -0.00041423       0.00000000
