10
Lattice="16.28999089631971 0.0 0.0 0.0 16.28999089631971 0.0 0.0 0.0 34.51877397758722" Properties=species:S:1:pos:R:3:initial_magmoms:R:1 pbc="T T T"
Si      -1.29735189       1.26584703       1.47517444       0.00000000
Si      -1.20677949      -1.68120945      -1.28988588       0.00000000
Si       1.44106227      -1.46232072       1.44861223       0.00000000
Si       0.86387499       1.90444761      -1.48612522       0.00000000
Si      -2.47124350       2.84508108       0.02528847       0.00000000
Si       0.08070066       2.60380989       2.84216698       0.00000000
Si      -2.63607061      -0.10687869       2.84410003       0.00000000
Si       2.83506273       2.68599294      -0.14640111       0.00000000
Si      -2.69544114      -2.88230373       0.04982097       0.00000000
Si       0.46156086      -2.74365954      -2.83232364       0.00000000
