10
Lattice="16.28999089631971 0.0 0.0 0.0 16.28999089631971 0.0 0.0 0.0 34.51877397758722" Properties=species:S:1:pos:R:3:initial_magmoms:R:1 pbc="T T T"
Si       1.35721764       1.35783666       1.35648502       0.00000000
Si      -1.35783177      -1.35757602       1.35679569       0.00000000
Si       1.35716877      -1.35553977      -1.36256033       0.00000000
Si      -1.35974911       1.36112724      -1.36138669       0.00000000
Si      -2.71423574      -2.71490769      -0.00100105       0.00000000
Si      -0.00040725      -2.71492398       2.71424723       0.00000000
Si       2.71503801      -0.00016290       2.71435079       0.00000000
Si      -2.71536643      -0.00063531       2.71462694       0.00000000
Si       2.71507059      -2.71494027       0.00013808       0.00000000
Si      -0.00047241       2.71526607       2.71507568       0.00000000
