10
Lattice="16.28999089631971 0.0 0.0 0.0 16.28999089631971 0.0 0.0 0.0 34.51877397758722" Properties=species:S:1:pos:R:3:initial_magmoms:R:1 pbc="T T T"
Si      -0.79645231       1.94189832      -1.12037647       0.00000000
Si       1.88809408       1.21468014       1.07643405       0.00000000
Si      -1.22662627      -1.21176423       1.82663098       0.00000000
Si      -0.16653430      -1.47124764      -2.22055945       0.00000000
Si      -2.15395081      -0.10761174      -2.49512193       0.00000000
Si      -0.41836630      -3.16462572       0.86690497       0.00000000
Si       1.25438050       3.04357473      -1.80992389       0.00000000
Si       3.74435587       0.27494262      -0.15381574       0.00000000
Si       2.79054379       1.12866894      -2.28276232       0.00000000
Si      -2.21881759       3.05551530       0.48636980       0.00000000
