10
Lattice="16.28999089631971 0.0 0.0 0.0 16.28999089631971 0.0 0.0 0.0 34.51877397758722" Properties=species:S:1:pos:R:3:initial_magmoms:R:1 pbc="T T T"
Si      -0.80825997       1.95286149       0.95972601       0.00000000
Si       2.32117024      -0.13895370      -0.15502390       0.00000000
Si      -0.72008414      -1.92679749       1.19752598       0.00000000
Si       0.41836630       3.16462572      -0.86690497       0.00000000
Si       0.25183200       1.69337808      -3.08746443       0.00000000
Si       0.37451524       2.29581486       3.12329493       0.00000000
Si       3.31666843       0.18363717       2.06318827       0.00000000
Si       0.93068842      -2.73965220       2.72518969       0.00000000
Si      -1.50214881      -3.71542320      -0.11905532       0.00000000
Si       3.29736479      -2.04258681      -1.20308350       0.00000000
