10
Lattice="16.28999089631971 0.0 0.0 0.0 16.28999089631971 0.0 0.0 0.0 34.51877397758722" Properties=species:S:1:pos:R:3:initial_magmoms:R:1 pbc="T T T"
Si      -1.67609995      -0.95120568      -1.30402478       0.00000000
Si      -1.51726818       1.13391432       1.44641338       0.00000000
Si       1.73493550       0.98420922      -1.37540964       0.00000000
Si       1.17389161      -1.57923405       1.44988597       0.00000000
Si      -0.91375497      -0.81568917      -3.54091162       0.00000000
Si      -0.16347015       2.47293603       2.82119336       0.00000000
Si       2.47124350      -2.84508108      -0.02528847       0.00000000
Si       3.33511849      -0.94063347      -1.51141369       0.00000000
Si       2.71709218       2.64460005      -0.00418368       0.00000000
Si      -2.94456967       2.38992219      -0.05903749       0.00000000
