10
Lattice="16.28999089631971 0.0 0.0 0.0 16.28999089631971 0.0 0.0 0.0 34.51877397758722" Properties=species:S:1:pos:R:3:initial_magmoms:R:1 pbc="T T T"
Si       1.35508365      -1.35879451      -1.36328522       0.00000000
Si      -1.35970186       1.35860229      -1.36211158       0.00000000
Si       1.35741312       1.35149985       1.37874964       0.00000000
Si      -1.37325840      -1.36512318       1.38358227       0.00000000
Si      -0.20281050       2.58062922       2.74120641       0.00000000
Si       2.71132389      -2.71530584      -0.00773221       0.00000000
Si       2.71226871       2.71653669      -0.00214017       0.00000000
Si       2.71199178      -0.00043983      -2.71956313       0.00000000
Si      -2.71519181      -2.71706611      -0.00024163       0.00000000
Si      -0.00322542       2.71476108      -2.71973572       0.00000000
