10
Lattice="16.28999089631971 0.0 0.0 0.0 16.28999089631971 0.0 0.0 0.0 34.51877397758722" Properties=species:S:1:pos:R:3:initial_magmoms:R:1 pbc="T T T"
Si      -1.35834100      -1.35713619      -1.35638146       0.00000000
Si       1.35713293      -1.35694071       1.35828000       0.00000000
Si      -1.35719511       1.35746199       1.35772770       0.00000000
Si       1.35714922       1.35879777      -1.35731347       0.00000000
Si       0.00007656       2.71505430       2.71410916       0.00000000
Si       2.71482298      -2.71437012      -0.00031067       0.00000000
Si      -0.00214376      -2.71107954      -2.71818238       0.00000000
Si      -2.71498329      -2.71440270       0.00000000       0.00000000
Si      -0.00078681       2.71381626      -2.71580058       0.00000000
Si      -2.71455975       2.71515204      -0.00017259       0.00000000
