10
Lattice="16.28999089631971 0.0 0.0 0.0 16.28999089631971 0.0 0.0 0.0 34.185847837958455" Properties=species:S:1:pos:R:3:initial_magmoms:R:1 pbc="T T T"
Si       1.80901427      -0.76712868       1.32039492       0.00000000
Si      -0.45255412       2.27419803      -0.47826028       0.00000000
Si      -2.10103274      -0.88238043       0.69633192       0.00000000
Si       0.60397781      -0.84766644      -2.15593170       0.00000000
Si      -2.13602366       1.59373215      -2.05590385       0.00000000
Si      -0.30701926       0.89888220      -3.45383232       0.00000000
Si      -1.39501647      -3.10919085       1.34870082       0.00000000
Si      -3.52916075      -0.01330893      -1.06485557       0.00000000
Si       2.23165832      -2.99700162       0.55011897       0.00000000
Si       1.12934660      -0.73981035       3.53533143       0.00000000
