10
Lattice="16.28999089631971 0.0 0.0 0.0 16.28999089631971 0.0 0.0 0.0 34.185847837958455" Properties=species:S:1:pos:R:3:initial_magmoms:R:1 pbc="T T T"
Si      -1.35689184      -1.35669636      -1.35734985       0.00000000
Si      -1.35441576       1.35666378       1.36196494       0.00000000
Si       1.35837423       1.35889551      -1.35741822       0.00000000
Si       1.35839052      -1.35826020       1.35878565       0.00000000
Si      -2.71894761      -0.03101616       2.70352092       0.00000000
Si       2.71435383      -2.71402803      -0.00109395       0.00000000
Si       0.00091224      -2.71448252      -2.71428946       0.00000000
Si      -2.71456560       0.00177561      -2.71446039       0.00000000
Si       0.01672983       2.72056032       2.70861461       0.00000000
Si       2.71588509       0.00105885      -2.71463132       0.00000000
