10
Lattice="16.28999089631971 0.0 0.0 0.0 16.28999089631971 0.0 0.0 0.0 34.185847837958455" Properties=species:S:1:pos:R:3:initial_magmoms:R:1 pbc="T T T"
Si      -1.43141859       1.28168091       1.31892493       0.00000000
Si       1.34135118       1.35527913      -1.35529869       0.00000000
Si      -1.37114559      -1.36389654      -1.34664967       0.00000000
Si       1.35444834      -1.29769398       1.44271196       0.00000000
Si      -2.39360373      -0.55069974       2.41328291       0.00000000
Si      -0.55421838      -2.20494924       2.63268780       0.00000000
Si      -0.07864812       2.53078182       2.81999216       0.00000000
Si       2.69887833       2.69544114       0.02225500       0.00000000
Si       2.69703756      -0.00330687      -2.70940088       0.00000000
Si       2.69259039      -2.72329704       0.03343378       0.00000000
