10
Lattice="16.28999089631971 0.0 0.0 0.0 16.28999089631971 0.0 0.0 0.0 34.185847837958455" Properties=species:S:1:pos:R:3:initial_magmoms:R:1 pbc="T T T"
Si       0.07496658      -0.74116242       2.17750298       0.00000000
Si      -2.22827652       0.59380308      -0.41778548       0.00000000
Si       0.50979555      -1.98312831      -1.27475679       0.00000000
Si       1.07105121       2.17333035       0.07021777       0.00000000
Si       1.23258285       2.56059252      -2.22529482       0.00000000
Si       2.27900358      -1.33266861       2.51802840       0.00000000
Si       0.37382292      -1.15144236      -3.50148742       0.00000000
Si       0.26008614       1.12598109       3.58609744       0.00000000
Si      -2.90292687       1.98431748       1.45040378       0.00000000
Si      -2.48994279       1.24828641      -2.71657992       0.00000000
