10
Lattice="16.28999089631971 0.0 0.0 0.0 16.28999089631971 0.0 0.0 0.0 34.185847837958455" Properties=species:S:1:pos:R:3:initial_magmoms:R:1 pbc="T T T"
Si       1.38083814      -1.31673699      -1.41495303       0.00000000
Si       1.65993471       0.89630838       1.44804495       0.00000000
Si      -1.32680421       1.40851485      -1.40992771       0.00000000
Si      -1.39668831      -1.48139631       1.38278413       0.00000000
Si       0.33488982      -2.59110369       2.50329429       0.00000000
Si       2.66857893       2.57673591       0.00164092       0.00000000
Si       3.47208318      -0.82204227       1.14720932       0.00000000
Si      -2.73067641       2.71780731       0.00242720       0.00000000
Si       0.02331099      -2.65689900      -2.79250673       0.00000000
Si       2.73075786      -2.73044835       0.02328058       0.00000000
