10
Lattice="16.28999089631971 0.0 0.0 0.0 16.28999089631971 0.0 0.0 0.0 34.185847837958455" Properties=species:S:1:pos:R:3:initial_magmoms:R:1 pbc="T T T"
Si      -0.94659561       1.52974503       1.46698392       0.00000000
Si       2.17699560      -0.47957760       0.68624709       0.00000000
Si       0.47807892       1.38233682      -1.84873750       0.00000000
Si      -1.54553004      -1.79188371       0.19496200       0.00000000
Si       2.01546396      -0.86683977       2.98175969       0.00000000
Si       2.81375541      -2.31301710      -0.66747905       0.00000000
Si      -1.28386377      -2.44636704       2.49375644       0.00000000
Si      -1.85971527       3.25716921       0.14925550       0.00000000
Si      -1.21966488       2.93061987      -2.11121658       0.00000000
Si      -0.85289553      -3.49558965      -1.29855016       0.00000000
