10
Lattice="16.28999089631971 0.0 0.0 0.0 16.28999089631971 0.0 0.0 0.0 34.185847837958455" Properties=species:S:1:pos:R:3:initial_magmoms:R:1 pbc="T T T"
Si      -0.98047881      -1.55455470      -1.45806141       0.00000000
Si       1.72299330       1.00595637      -1.37321209       0.00000000
Si      -1.51031106       1.99756029       0.00331603       0.00000000
Si       0.22385718      -1.69047846       2.04431484       0.00000000
Si      -2.30438340      -0.14960736      -2.86846772       0.00000000
Si      -2.36744199      -2.89114920       0.02071664       0.00000000
Si       0.43280901       2.56313769      -2.86781819       0.00000000
Si       3.15366255       2.27121926      -0.02659660       0.00000000
Si      -3.52623114       1.19187414      -1.26005687       0.00000000
Si       1.92731877       2.84332895       1.91639133       0.00000000
