10
Lattice="16.28999089631971 0.0 0.0 0.0 16.28999089631971 0.0 0.0 0.0 34.185847837958455" Properties=species:S:1:pos:R:3:initial_magmoms:R:1 pbc="T T T"
Si      -0.75870838       1.00226668      -1.97905402       0.00000000
Si      -2.20077315      -0.50319973       0.95720427       0.00000000
Si       1.28110750      -2.05841973      -0.49654972       0.00000000
Si       1.91617315       1.54267114      -0.41436689       0.00000000
Si       0.91044484       1.53299488       1.85095958       0.00000000
Si      -0.83457091      -2.05747491       2.24461706       0.00000000
Si       0.22929152      -0.26459684       3.43922953       0.00000000
Si      -0.84663040      -0.89849939      -3.49823976       0.00000000
Si      -0.89205017      -3.57404133      -0.52820583       0.00000000
Si       1.07645623      -2.24523345      -2.84730667       0.00000000
