10
Lattice="16.28999089631971 0.0 0.0 0.0 16.28999089631971 0.0 0.0 0.0 34.185847837958455" Properties=species:S:1:pos:R:3:initial_magmoms:R:1 pbc="T T T"
Si      -1.43066925      -1.26526289      -1.34661548       0.00000000
Si      -1.22634378       0.57210969       1.94298793       0.00000000
Si       1.73887605      -1.09325678       1.21120527       0.00000000
Si       1.27566990       1.62178842      -1.35181174       0.00000000
Si      -0.00584811       2.64748827       2.10882357       0.00000000
Si       0.01238040      -0.79366183       3.55580876       0.00000000
Si       3.37305627       0.71034663       1.24952762       0.00000000
Si      -0.02329470      -2.43727952      -2.84023020       0.00000000
Si      -3.15366255      -2.27121926       0.02659660       0.00000000
Si       2.75455755      -2.76174374      -0.04556976       0.00000000
