10
Lattice="16.28999089631971 0.0 0.0 0.0 16.28999089631971 0.0 0.0 0.0 34.185847837958455" Properties=species:S:1:pos:R:3:initial_magmoms:R:1 pbc="T T T"
Si       0.55170972      -1.70533072       1.56892618       0.00000000
Si       2.24515296       0.78026331      -0.31119395       0.00000000
Si      -1.12024701      -0.33817714      -2.13080509       0.00000000
Si      -0.83618199       1.81404951       1.46055698       0.00000000
Si       0.44940852      -1.86389758      -3.13928816       0.00000000
Si       2.25500841      -2.89424008       0.38113823       0.00000000
Si      -1.42433244      -3.00932893       1.68437185       0.00000000
Si       3.73777308      -1.06029559      -0.07931121       0.00000000
Si      -1.45865547       1.85089749      -3.09696606       0.00000000
Si      -2.77524585       2.75442234       0.21335400       0.00000000
