10
Lattice="16.28999089631971 0.0 0.0 0.0 16.28999089631971 0.0 0.0 0.0 34.185847837958455" Properties=species:S:1:pos:R:3:initial_magmoms:R:1 pbc="T T T"
Si       1.18537443      -1.49861484      -1.36671677       0.00000000
Si      -1.61951922      -1.64095686       0.60444031       0.00000000
Si      -1.43027829       1.25276616      -1.48999101       0.00000000
Si       0.41182749       2.70840798       1.67189401       0.00000000
Si       1.73209941       0.58404537       2.67258271       0.00000000
Si      -3.14214552      -0.34145469       1.88090640       0.00000000
Si      -0.58867173      -2.91094155       2.32935660       0.00000000
Si       2.47876785      -0.02298519      -2.90490986       0.00000000
Si      -0.33800121      -2.66665671      -2.85619500       0.00000000
Si      -2.95723773       1.98399168       1.65333108       0.00000000
