10
Lattice="16.28999089631971 0.0 0.0 0.0 16.28999089631971 0.0 0.0 0.0 34.185847837958455" Properties=species:S:1:pos:R:3:initial_magmoms:R:1 pbc="T T T"
Si       0.27499149       0.88286913      -2.08831205       0.00000000
Si       0.92484846       1.39088907       1.56571271       0.00000000
Si      -0.18490779      -2.32544637       0.22757532       0.00000000
Si      -0.82249839       2.83950990       0.76470366       0.00000000
Si      -2.28661101       1.98358443      -0.83492143       0.00000000
Si       3.36906522       0.72441630       0.01856293       0.00000000
Si      -3.36202794       0.37761849       0.98598877       0.00000000
Si       1.52695944      -0.73122552      -3.14332209       0.00000000
Si      -2.22589818      -2.85868323      -1.01309817       0.00000000
Si       0.93094092       0.45730917       3.77644435       0.00000000
