10
Lattice="16.28999089631971 0.0 0.0 0.0 16.28999089631971 0.0 0.0 0.0 34.185847837958455" Properties=species:S:1:pos:R:3:initial_magmoms:R:1 pbc="T T T"
Si      -1.23984642       1.21798701      -1.54838047       0.00000000
Si      -1.37738289      -1.33506324       1.36794747       0.00000000
Si       1.33759226       1.37880189       1.36941746       0.00000000
Si       1.44428036      -1.33221249      -1.47300747       0.00000000
Si       2.69518946      -2.69889462       0.00323398       0.00000000
Si       2.69478221       0.02137248       2.73008333       0.00000000
Si      -0.02120559      -2.69550630       2.73196356       0.00000000
Si      -2.70198795       2.72701116      -0.00460142       0.00000000
Si       2.68895039       2.74281246      -0.00103583       0.00000000
Si      -2.72217126      -2.71264338       0.00132983       0.00000000
