10
Lattice="16.28999089631971 0.0 0.0 0.0 16.28999089631971 0.0 0.0 0.0 34.185847837958455" Properties=species:S:1:pos:R:3:initial_magmoms:R:1 pbc="T T T"
Si       1.35394335       1.36282140       1.38442847       0.00000000
Si      -1.36443411      -1.35508365       1.38514638       0.00000000
Si      -1.49657859       1.23960384      -1.44141631       0.00000000
Si       1.41278283      -1.47911571      -1.34449254       0.00000000
Si      -2.46809790      -0.53913384      -2.76123832       0.00000000
Si       2.69731449       2.70811476       0.00312117       0.00000000
Si      -2.70940167      -2.70612738       0.04454418       0.00000000
Si      -2.73264750       2.69594613       0.01934578       0.00000000
Si       2.70904329       0.00239463       2.74253041       0.00000000
Si      -0.00527796      -2.71243161       2.74345343       0.00000000
