10
Lattice="16.28999089631971 0.0 0.0 0.0 16.28999089631971 0.0 0.0 0.0 34.185847837958455" Properties=species:S:1:pos:R:3:initial_magmoms:R:1 pbc="T T T"
Si      -1.35601218      -1.35764118       1.35704217       0.00000000
Si       1.35624024       1.35700587       1.35851217       0.00000000
Si       1.35795069      -1.35786924      -1.35673450       0.00000000
Si      -1.35793440       1.35821133      -1.35683706       0.00000000
Si      -0.00009774      -2.71252935       2.71128111       0.00000000
Si      -0.00143352       2.71409319      -2.71463132       0.00000000
Si       2.71412577      -0.00048870      -2.71463132       0.00000000
Si      -0.00019548      -2.71531494      -2.71370830       0.00000000
Si       2.71472850      -2.71440270       0.00037604       0.00000000
Si      -2.71466334      -2.71446786       0.00051279       0.00000000
