10
Lattice="16.28999089631971 0.0 0.0 0.0 16.28999089631971 0.0 0.0 0.0 34.185847837958455" Properties=species:S:1:pos:R:3:initial_magmoms:R:1 pbc="T T T"
Si      -1.92230145      -1.23839838       0.44903136       0.00000000
Si       1.89591165      -1.20026349      -0.75061908       0.00000000
Si       0.94933233       1.23660648       1.78826270       0.00000000
Si      -0.93724515       1.45047789      -1.65151923       0.00000000
Si       2.49932583       2.41657265       0.40383765       0.00000000
Si       3.26995686       0.72003429      -1.13753472       0.00000000
Si      -3.39082866       0.52269723       0.92633444       0.00000000
Si      -1.32659244      -2.95964865       1.85841210       0.00000000
Si       1.90946493      -0.53188479       3.21586450       0.00000000
Si      -3.27943764       1.29303504      -1.38859573       0.00000000
