10
Lattice="16.28999089631971 0.0 0.0 0.0 16.28999089631971 0.0 0.0 0.0 34.185847837958455" Properties=species:S:1:pos:R:3:initial_magmoms:R:1 pbc="T T T"
Si       1.43907879      -1.20868542       1.39828400       0.00000000
Si       1.70441848       0.99023652      -1.32603016       0.00000000
Si      -1.26537462       1.51140249       1.38252774       0.00000000
Si      -1.48584348      -1.41397200      -1.58406509       0.00000000
Si       0.18006966       1.59470955      -3.24532729       0.00000000
Si       0.08286723      -2.54088651       2.75533302       0.00000000
Si       0.35223867      -2.86116908      -2.44476266       0.00000000
Si      -2.66971923       2.71764441      -0.08847986       0.00000000
Si      -2.63652021       0.17366769       2.75273489       0.00000000
Si       2.78230335      -2.62256620       0.03726259       0.00000000
