10
Lattice="16.28999089631971 0.0 0.0 0.0 16.28999089631971 0.0 0.0 0.0 34.185847837958455" Properties=species:S:1:pos:R:3:initial_magmoms:R:1 pbc="T T T"
Si       1.35335691       1.33393923       1.36213587       0.00000000
Si      -1.35943308       1.35366642      -1.35475172       0.00000000
Si       1.35417141      -1.35909425      -1.35478591       0.00000000
Si      -1.38041460      -1.34498548       1.36999862       0.00000000
Si       2.56328037      -0.18674856       2.75295368       0.00000000
Si      -0.00156384       2.71316466      -2.71237505       0.00000000
Si       2.71356374      -0.00130320      -2.71254598       0.00000000
Si       2.71701443       2.71099809       0.00444416       0.00000000
Si      -2.71606428      -0.00148239      -2.71210157       0.00000000
Si      -0.00149868      -2.71648881      -2.71216994       0.00000000
