10
Lattice="16.28999089631971 0.0 0.0 0.0 16.28999089631971 0.0 0.0 0.0 34.185847837958455" Properties=species:S:1:pos:R:3:initial_magmoms:R:1 pbc="T T T"
Si       0.92782953       1.49514833      -1.54872233       0.00000000
Si      -1.09656135       1.68114755       1.22204219       0.00000000
Si      -1.83402594      -1.04945458      -1.05894141       0.00000000
Si       1.32875901      -1.37927823       1.48407686       0.00000000
Si      -1.58827500       0.41474014       3.15357785       0.00000000
Si      -0.09565488      -1.42581876       3.38546059       0.00000000
Si      -2.83328712       0.74307161      -2.43895649       0.00000000
Si       3.12857595       2.09273069      -1.01709791       0.00000000
Si       0.49738257       3.43127999       1.80258658       0.00000000
Si      -1.06339491      -2.74599294      -2.60031378       0.00000000
