10
Lattice="16.28999089631971 0.0 0.0 0.0 16.28999089631971 0.0 0.0 0.0 34.185847837958455" Properties=species:S:1:pos:R:3:initial_magmoms:R:1 pbc="T T T"
Si       1.35653346       1.35651717       1.35769171       0.00000000
Si      -1.35687555       1.35718506      -1.35697380       0.00000000
Si       1.35780408      -1.35705474      -1.35724729       0.00000000
Si      -1.35786924      -1.35949824       1.35762333       0.00000000
Si       0.00156384      -2.71316466       2.71237505       0.00000000
Si       2.71455153      -0.00216657      -2.71367412       0.00000000
Si      -0.00026064      -2.71564074      -2.71343482       0.00000000
Si      -2.71450044      -2.71464705       0.00027349       0.00000000
Si       2.71512758      -2.71446786      -0.00017093       0.00000000
Si       0.00325800       2.71423980       2.71586201       0.00000000
