10
Lattice="16.28999089631971 0.0 0.0 0.0 16.28999089631971 0.0 0.0 0.0 34.185847837958455" Properties=species:S:1:pos:R:3:initial_magmoms:R:1 pbc="T T T"
Si       1.37819916       1.79792730       0.32209924       0.00000000
Si      -0.80185896      -0.57417363       2.11039612       0.00000000
Si       1.23403266      -1.99928799      -0.42075965       0.00000000
Si      -1.32027192       2.12436261      -1.00068870       0.00000000
Si      -1.73209941      -0.58404537      -2.67258271       0.00000000
Si       2.69159670      -1.74428433       1.45170284       0.00000000
Si       1.19366604      -1.21150359       3.26909190       0.00000000
Si       3.26174670       1.47294180      -0.94681177       0.00000000
Si      -2.34336537      -2.39213763       1.73759924       0.00000000
Si      -1.58340429       1.17476964       3.45007188       0.00000000
