10
Lattice="16.28999089631971 0.0 0.0 0.0 16.28999089631971 0.0 0.0 0.0 34.185847837958455" Properties=species:S:1:pos:R:3:initial_magmoms:R:1 pbc="T T T"
Si      -1.88354754       0.32498550       1.26891101       0.00000000
Si       1.22279649       1.99808253       0.19967965       0.00000000
Si       0.67717760      -1.64074509      -1.56352481       0.00000000
Si       0.84749281      -1.36679616       1.84056708       0.00000000
Si       2.87196677      -0.56516526      -2.06940727       0.00000000
Si      -1.13248080       1.20270699       3.30802960       0.00000000
Si      -3.26174670      -1.47294180       0.94681177       0.00000000
Si      -0.66106449      -1.15833303      -3.51714455       0.00000000
Si       0.94755250       0.05699871       3.69966289       0.00000000
Si      -0.44383734      -3.69903546      -1.17366918       0.00000000
