10
Lattice="16.28999089631971 0.0 0.0 0.0 16.28999089631971 0.0 0.0 0.0 34.185847837958455" Properties=species:S:1:pos:R:3:initial_magmoms:R:1 pbc="T T T"
Si      -1.63631421       0.25619283      -1.64290439       0.00000000
Si       1.49918499       1.81071495      -0.12922258       0.00000000
Si      -1.10047095       0.40462731       2.04534042       0.00000000
Si       0.80542647      -2.21978943       0.05975690       0.00000000
Si      -3.16550538      -1.05528249      -0.34756771       0.00000000
Si      -1.41372765       2.66841603       1.77216116       0.00000000
Si       2.90732517      -1.87333371      -1.11958714       0.00000000
Si       0.35562699       3.71522772       0.65124077       0.00000000
Si       3.05365824       1.51863525       1.68662812       0.00000000
Si      -3.09997071      -0.86942988       2.03826394       0.00000000
