10
Lattice="16.28999089631971 0.0 0.0 0.0 16.28999089631971 0.0 0.0 0.0 34.185847837958455" Properties=species:S:1:pos:R:3:initial_magmoms:R:1 pbc="T T T"
Si       2.20706694      -0.48601215       0.68853755       0.00000000
Si      -0.93467133       0.74727117       2.09145715       0.00000000
Si      -0.03437190       1.57149630      -2.31171669       0.00000000
Si      -3.08570067      -1.60743204       0.57702325       0.00000000
Si       1.84024872      -0.93092463       2.96907673       0.00000000
Si      -1.52572140       3.01920489       1.52414269       0.00000000
Si      -2.29086270      -1.11348666       2.69911094       0.00000000
Si      -3.89355435       0.64461159       0.20309824       0.00000000
Si       3.81696433       1.03255794      -0.14217902       0.00000000
Si       1.17960777       0.18378378      -3.79220403       0.00000000
