10
Lattice="16.28999089631971 0.0 0.0 0.0 16.28999089631971 0.0 0.0 0.0 34.185847837958455" Properties=species:S:1:pos:R:3:initial_magmoms:R:1 pbc="T T T"
Si      -1.33074639      -1.36254447       1.37338644       0.00000000
Si       1.17605655      -1.56548529      -1.32085643       0.00000000
Si       1.38746817       1.35000347       1.37806990       0.00000000
Si      -1.58004855       1.24282830      -1.45774348       0.00000000
Si      -2.68977222       2.71237364       0.01852874       0.00000000
Si      -2.69042382      -0.00975094       2.73466766       0.00000000
Si       2.74367973       2.68220456       0.02102089       0.00000000
Si      -2.70172908      -2.73318507      -0.00487832       0.00000000
Si       0.02537982       2.70595538       2.73613765       0.00000000
Si      -0.43030035      -2.38739724      -2.99284757       0.00000000
