10
Lattice="16.28999089631971 0.0 0.0 0.0 16.28999089631971 0.0 0.0 0.0 34.185847837958455" Properties=species:S:1:pos:R:3:initial_magmoms:R:1 pbc="T T T"
Si      -1.35573525      -1.35736425      -1.35659776       0.00000000
Si      -1.35488817       1.35837423       1.35711055       0.00000000
Si       1.35959920       1.35778779      -1.35632427       0.00000000
Si       1.36269108      -1.35767376       1.36083681       0.00000000
Si      -2.69910639      -0.01003464       2.72389569       0.00000000
Si      -2.71267596      -0.00006516      -2.71333226       0.00000000
Si      -2.71324611       2.71350675       0.00058116       0.00000000
Si       2.71525208       2.71277370      -0.00006837       0.00000000
Si       0.00272043      -2.71467963      -2.71374249       0.00000000
Si       0.00166158       2.71485882      -2.71363993       0.00000000
