10
Lattice="16.28999089631971 0.0 0.0 0.0 16.28999089631971 0.0 0.0 0.0 34.185847837958455" Properties=species:S:1:pos:R:3:initial_magmoms:R:1 pbc="T T T"
Si      -0.03679911      -1.97314254      -1.21917057       0.00000000
Si       1.39313709       1.60704108      -0.99104828       0.00000000
Si       1.42812801      -0.86907150       1.76118749       0.00000000
Si      -2.34932751       0.73440207      -0.04963788       0.00000000
Si       3.52916075       0.01330893       1.06485557       0.00000000
Si       0.29510964      -0.22815774       3.71976418       0.00000000
Si      -1.17072972      -1.46176686      -3.25887032       0.00000000
Si      -0.85414986      -3.73744728       0.34572167       0.00000000
Si       3.07660663       2.28750696       0.58659529       0.00000000
Si      -3.72337272      -1.18589571       0.33727776       0.00000000
