10
Lattice="16.28999089631971 0.0 0.0 0.0 16.28999089631971 0.0 0.0 0.0 34.185847837958455" Properties=species:S:1:pos:R:3:initial_magmoms:R:1 pbc="T T T"
Si       0.79706970       1.89097578       1.19011259       0.00000000
Si      -1.38372147      -1.01470410       1.66628753       0.00000000
Si      -1.30784265       1.02118752      -1.79284361       0.00000000
Si       1.93319946      -1.34532594      -0.80897436       0.00000000
Si       0.38755539       0.42445224      -3.41140766       0.00000000
Si       1.42338762       0.78809391       3.34949706       0.00000000
Si      -3.50263182      -0.05439231      -1.28696115       0.00000000
Si       0.10300167      -1.22732118       3.53105820       0.00000000
Si      -3.33231661       0.21955662       2.11713074       0.00000000
Si       1.87248663       3.49694172      -0.63079762       0.00000000
