10
Lattice="16.28999089631971 0.0 0.0 0.0 16.28999089631971 0.0 0.0 0.0 34.185847837958455" Properties=species:S:1:pos:R:3:initial_magmoms:R:1 pbc="T T T"
Si       1.57780053       1.71616779      -0.30162190       0.00000000
Si      -0.22814145      -1.60161651      -1.71281449       0.00000000
Si      -1.81089251       1.58320881       0.39426560       0.00000000
Si       0.50725431      -1.46613258       1.90254605       0.00000000
Si      -0.90940554       1.93114692       2.59515172       0.00000000
Si       0.90315018       3.10668219       1.56656735       0.00000000
Si       0.96739794      -3.40827525      -0.73267150       0.00000000
Si      -0.58694499      -0.25373304       3.59348159       0.00000000
Si       1.31613426       2.37065112      -2.60041634       0.00000000
Si      -2.54054930      -2.09518722      -1.84969470       0.00000000
