10
Lattice="16.28999089631971 0.0 0.0 0.0 16.28999089631971 0.0 0.0 0.0 34.185847837958455" Properties=species:S:1:pos:R:3:initial_magmoms:R:1 pbc="T T T"
Si       0.90148697       0.34793811       2.20088611       0.00000000
Si       1.81089251      -1.58320881      -0.39426560       0.00000000
Si      -2.32449408      -0.79993674      -0.17786907       0.00000000
Si       0.11995793       2.37307833      -0.71055324       0.00000000
Si       2.71404269       1.52347338       1.17230175       0.00000000
Si      -1.83991545      -1.58752566      -2.38210539       0.00000000
Si      -3.05019729       1.51669674       0.25304379       0.00000000
Si       3.38869304       0.13295898      -0.69588751       0.00000000
Si      -1.50039159       3.32441433       0.70754489       0.00000000
Si      -2.32118721      -2.61156393       1.46790694       0.00000000
