10
Lattice="16.28999089631971 0.0 0.0 0.0 16.28999089631971 0.0 0.0 0.0 34.185847837958455" Properties=species:S:1:pos:R:3:initial_magmoms:R:1 pbc="T T T"
Si       0.89324586       1.63517391       1.48269032       0.00000000
Si      -1.73885976      -1.02905559       1.32265944       0.00000000
Si      -0.90399726       1.52151858      -1.76641793       0.00000000
Si       1.77412761      -1.85588712      -0.01938339       0.00000000
Si       2.47831173       2.49777828       0.02249430       0.00000000
Si       0.96298335       2.97351144      -1.71937818       0.00000000
Si       2.23700796       0.33078474       2.82827681       0.00000000
Si       0.22511151      -2.45793294      -2.74789417       0.00000000
Si      -0.48795066      -2.39573772       2.79890089       0.00000000
Si      -2.86691782       2.45270385      -0.39166748       0.00000000
