10
Lattice="16.28999089631971 0.0 0.0 0.0 16.28999089631971 0.0 0.0 0.0 34.185847837958455" Properties=species:S:1:pos:R:3:initial_magmoms:R:1 pbc="T T T"
Si      -1.35135813      -1.36401057       1.37045329       0.00000000
Si       1.36428750       1.35444834       1.37773488       0.00000000
Si       1.38743559      -1.41079545      -1.31194076       0.00000000
Si      -1.46652028       1.19783628      -1.49106445       0.00000000
Si       2.70795186       2.68688889       0.00844733       0.00000000
Si      -2.72046977       2.67489945       0.00219473       0.00000000
Si      -2.68895039      -2.74281246       0.00103583       0.00000000
Si       0.00509877       2.70686043       2.73183707       0.00000000
Si      -2.71218216      -0.00421911       2.73108498       0.00000000
Si       2.73119769      -2.71518462       0.03364573       0.00000000
