10
Lattice="16.28999089631971 0.0 0.0 0.0 16.28999089631971 0.0 0.0 0.0 34.185847837958455" Properties=species:S:1:pos:R:3:initial_magmoms:R:1 pbc="T T T"
Si       1.35642546       1.35593073       1.35635846       0.00000000
Si       1.35720738      -1.35736425      -1.35741822       0.00000000
Si      -1.35717156       1.35783666      -1.35755496       0.00000000
Si      -1.35912636      -1.35852084       1.35728148       0.00000000
Si      -2.71240182      -0.00079821       2.71545178       0.00000000
Si       2.71489580       0.00131949       2.71333226       0.00000000
Si       2.71430936      -2.71484253      -0.00034186       0.00000000
Si       2.71422791       2.71539639       0.00000000       0.00000000
Si      -2.71565982      -2.71503801      -0.00041023       0.00000000
Si      -2.71562724       2.71515204      -0.00041023       0.00000000
