10
Lattice="16.28999089631971 0.0 0.0 0.0 16.28999089631971 0.0 0.0 0.0 34.185847837958455" Properties=species:S:1:pos:R:3:initial_magmoms:R:1 pbc="T T T"
Si      -1.35216374       1.35553977      -1.35133313       0.00000000
Si      -1.35403709      -1.35905841       1.35844379       0.00000000
Si       1.35994275       1.35552348       1.35837542       0.00000000
Si       1.36082403      -1.35979146      -1.36063169       0.00000000
Si      -0.00828761       2.67911856      -2.72889025       0.00000000
Si      -2.67875618      -0.01158219      -2.73465057       0.00000000
Si      -2.71244390       2.71041165       0.00003419       0.00000000
Si      -2.71249277      -0.00174303       2.71558853       0.00000000
Si       2.71728093       2.71107954       0.00075209       0.00000000
Si      -2.71366565      -2.71541268      -0.00010256       0.00000000
