10
Lattice="16.28999089631971 0.0 0.0 0.0 16.28999089631971 0.0 0.0 0.0 34.185847837958455" Properties=species:S:1:pos:R:3:initial_magmoms:R:1 pbc="T T T"
Si      -1.35762163      -1.35659862       1.35779426       0.00000000
Si       1.35739683       1.35868374       1.35840961       0.00000000
Si       1.35894438      -1.35814780      -1.35765752       0.00000000
Si      -1.35699121       1.36177884      -1.35629009       0.00000000
Si      -2.71204394      -0.02409291      -2.71323654       0.00000000
Si       0.02764413      -2.71537864      -2.71029655       0.00000000
Si      -2.71553168       2.71313208       0.00164092       0.00000000
Si       2.71340901      -2.71564793       0.00099139       0.00000000
Si       2.71423980       2.71546155       0.00133325       0.00000000
Si      -2.71495563       0.00083079       2.71514411       0.00000000
