10
Lattice="16.28999089631971 0.0 0.0 0.0 16.28999089631971 0.0 0.0 0.0 34.185847837958455" Properties=species:S:1:pos:R:3:initial_magmoms:R:1 pbc="T T T"
Si       1.62034952      -0.95133600      -1.41809813       0.00000000
Si      -1.54980570      -1.80771759      -0.45450110       0.00000000
Si      -0.70601628       2.22681042      -0.65236890       0.00000000
Si       0.88839910       0.56927034       2.24679773       0.00000000
Si      -2.22893580      -2.25192960       1.75072662       0.00000000
Si      -1.83903465       2.86772418       1.30620779       0.00000000
Si       1.39501647       3.10919085      -1.34870082       0.00000000
Si      -2.98829415      -0.64156536      -2.06783472       0.00000000
Si       3.62667479       0.11218923      -0.79858185       0.00000000
Si       1.50039159      -3.32441433      -0.70754489       0.00000000
