10
Lattice="16.28999089631971 0.0 0.0 0.0 16.28999089631971 0.0 0.0 0.0 34.185847837958455" Properties=species:S:1:pos:R:3:initial_magmoms:R:1 pbc="T T T"
Si       1.03108695       0.61472174      -2.02404262       0.00000000
Si       0.45255412      -2.27419803       0.47826028       0.00000000
Si       0.01326006       1.54208375       1.79790311       0.00000000
Si      -1.68346954      -0.68046588      -1.57764357       0.00000000
Si       0.14553486      -1.37531583      -2.97557204       0.00000000
Si      -1.23396328       3.28561874       0.94698270       0.00000000
Si       1.05653193      -3.12186447      -1.67767142       0.00000000
Si      -1.64847862      -3.15657846       1.17459220       0.00000000
Si       2.25829410       2.28080267       2.09381598       0.00000000
Si       3.28647003       1.00454470      -1.71517332       0.00000000
