10
Lattice="10.86 0.0 0.0 0.0 10.86 0.0 0.0 0.0 10.86" Properties=species:S:1:pos:R:3:initial_magmoms:R:1 pbc="T T T"
Si      -1.28159946       1.41026874      -1.19331852       0.00000000
Si       1.43340054      -1.30473126      -1.19331852       0.00000000
Si      -1.28159946      -1.30473126       1.52168148       0.00000000
Si       1.52589516       1.85050056       1.02263190       0.00000000
Si      -2.63909946       0.05276874      -2.55081852       0.00000000
Si       0.07590054      -2.66223126      -2.55081852       0.00000000
Si      -2.63909946      -2.66223126       0.16418148       0.00000000
Si       0.29924730       2.83805466      -2.44202304       0.00000000
Si       2.82101532       0.03653304      -2.54192418       0.00000000
Si      -2.63909946       2.76776874       0.16418148       0.00000000
