10
Lattice="10.86 0.0 0.0 0.0 10.86 0.0 0.0 0.0 10.86" Properties=species:S:1:pos:R:3:initial_magmoms:R:1 pbc="T T T"
Si       1.32890562      -1.43158692      -1.06389990       0.00000000
Si       1.32890562       1.28341308       1.65110010       0.00000000
Si      -1.38609438      -1.43158692       1.65110010       0.00000000
Si      -0.10665606       2.51697876      -2.27694018       0.00000000
Si       2.68640562      -0.07408692      -2.42139990       0.00000000
Si      -2.71347960      -0.09032262      -2.41250556       0.00000000
Si      -0.02859438      -2.78908692      -2.42139990       0.00000000
Si       2.68640562       2.64091308       0.29360010       0.00000000
Si       2.68640562      -2.78908692       0.29360010       0.00000000
Si      -2.74359438      -2.78908692       0.29360010       0.00000000
