10
Lattice="10.86 0.0 0.0 0.0 10.86 0.0 0.0 0.0 10.86" Properties=species:S:1:pos:R:3:initial_magmoms:R:1 pbc="T T T"
Si       1.13415324      -1.42778592      -1.46629548       0.00000000
Si       1.50271992       0.88969464       1.70873412       0.00000000
Si      -1.58084676      -1.42778592       1.24870452       0.00000000
Si      -1.58084676       1.28721408      -1.46629548       0.00000000
Si       2.33801682       2.42503800       0.02564046       0.00000000
Si      -0.03167862       2.66795448       2.63907774       0.00000000
Si      -0.29924730      -2.83805466       2.44202304       0.00000000
Si       2.49165324      -0.07028592      -2.82379548       0.00000000
Si       2.52176802      -2.80152162      -0.09990114       0.00000000
Si       1.22664786      -0.98755410       3.46465494       0.00000000
