10
Lattice="10.86 0.0 0.0 0.0 10.86 0.0 0.0 0.0 10.86" Properties=species:S:1:pos:R:3:initial_magmoms:R:1 pbc="T T T"
Si       0.83529690       1.53534336      -1.68309366       0.00000000
Si      -1.50271992      -0.88969464      -1.70873412       0.00000000
Si      -1.53439854       1.77825984       0.93034362       0.00000000
Si      -0.27607206      -1.87724874       1.75592082       0.00000000
Si      -3.08356668       0.39751944       2.25497040       0.00000000
Si      -0.36856668       3.11251944       2.25497040       0.00000000
Si      -3.08356668      -2.31748056      -0.46002960       0.00000000
Si       2.34643332       3.11251944      -0.46002960       0.00000000
Si      -0.36856668      -2.31748056      -3.17502960       0.00000000
Si       2.34643332       0.39751944      -3.17502960       0.00000000
