10
Lattice="10.86 0.0 0.0 0.0 10.86 0.0 0.0 0.0 10.86" Properties=species:S:1:pos:R:3:initial_magmoms:R:1 pbc="T T T"
Si       1.35750000       1.35750000       1.35750000       0.00000000
Si      -1.35750000      -1.35750000       1.35750000       0.00000000
Si      -1.35750000       1.35750000      -1.35750000       0.00000000
Si       1.35750000      -1.35750000      -1.35750000       0.00000000
Si      -2.47705740      -0.16767840      -2.65809360       0.00000000
Si      -2.49165324       0.07028592       2.82379548       0.00000000
Si       0.11714682      -2.54253234      -2.79637398       0.00000000
Si      -0.15363642       2.49532392       2.84943594       0.00000000
Si       0.06539892       2.71503258      -2.71365336       0.00000000
Si       2.71500000       2.71500000       0.00000000       0.00000000
