10
Lattice="10.86 0.0 0.0 0.0 10.86 0.0 0.0 0.0 10.86" Properties=species:S:1:pos:R:3:initial_magmoms:R:1 pbc="T T T"
Si       1.43556168       1.48143432       1.21304028       0.00000000
Si       1.43556168      -1.23356568      -1.50195972       0.00000000
Si      -1.27943832       1.48143432      -1.50195972       0.00000000
Si       0.10665606      -2.51697876       2.27694018       0.00000000
Si       0.09764226       2.59803780       2.53354026       0.00000000
Si      -2.60682354      -2.60730138      -0.13556538       0.00000000
Si       2.79306168       0.12393432       2.57054028       0.00000000
Si       2.79306168      -2.59106568      -0.14445972       0.00000000
Si      -2.79057474       2.61925824      -0.01002378       0.00000000
Si       0.07806168      -2.59106568      -2.85945972       0.00000000
