10
Lattice="10.86 0.0 0.0 0.0 10.86 0.0 0.0 0.0 10.86" Properties=species:S:1:pos:R:3:initial_magmoms:R:1 pbc="T T T"
Si       1.29210108       1.35746742       1.35615336       0.00000000
Si      -1.42289892      -1.35753258       1.35615336       0.00000000
Si      -1.42289892       1.35746742      -1.35884664       0.00000000
Si       2.62944492      -2.52420066      -0.09653454       0.00000000
Si      -2.58873078       0.02320782      -2.68347342       0.00000000
Si       2.64960108      -0.00003258       2.71365336       0.00000000
Si       2.64960108       2.71496742      -0.00134664       0.00000000
Si      -0.06539892       2.71496742       2.71365336       0.00000000
Si      -0.06539892      -2.71503258       2.71365336       0.00000000
Si      -0.06539892       2.71496742      -2.71634664       0.00000000
