10
Lattice="10.86 0.0 0.0 0.0 10.86 0.0 0.0 0.0 10.86" Properties=species:S:1:pos:R:3:initial_magmoms:R:1 pbc="T T T"
Si      -1.33316274       1.44268584      -1.25852196       0.00000000
Si      -1.33316274      -1.27231416       1.45647804       0.00000000
Si       1.38183726       1.44268584       1.45647804       0.00000000
Si       0.66058122      -2.89602534      -1.76971302       0.00000000
Si       2.45103684      -2.77051632      -0.06316176       0.00000000
Si      -2.69066274       0.08518584      -2.61602196       0.00000000
Si      -2.69066274      -2.62981416       0.09897804       0.00000000
Si       0.02433726      -2.62981416       2.81397804       0.00000000
Si      -2.69066274       2.80018584       0.09897804       0.00000000
Si      -2.69066274       0.08518584       2.81397804       0.00000000
