10
Lattice="10.86 0.0 0.0 0.0 10.86 0.0 0.0 0.0 10.86" Properties=species:S:1:pos:R:3:initial_magmoms:R:1 pbc="T T T"
Si       1.24875882       1.50111264       1.13471796       0.00000000
Si      -1.38762564      -1.23796398       1.32459420       0.00000000
Si       1.32737436      -1.23796398      -1.39040580       0.00000000
Si      -1.38762564       1.47703602      -1.39040580       0.00000000
Si       2.60871318      -0.15944652       2.26061760       0.00000000
Si       2.63360430      -2.59430196      -0.04927182       0.00000000
Si      -2.74512564      -2.59546398      -0.03290580       0.00000000
Si      -0.03012564      -2.59546398      -2.74790580       0.00000000
Si      -2.74512564       0.11953602       2.68209420       0.00000000
Si       2.68487436       0.11953602      -2.74790580       0.00000000
