10
Lattice="10.86 0.0 0.0 0.0 10.86 0.0 0.0 0.0 10.86" Properties=species:S:1:pos:R:3:initial_magmoms:R:1 pbc="T T T"
Si       1.35750000       1.35750000       1.35750000       0.00000000
Si       1.35750000      -1.35750000      -1.35750000       0.00000000
Si      -1.35750000      -1.35750000       1.35750000       0.00000000
Si      -1.35750000       1.35750000      -1.35750000       0.00000000
Si       0.00120546       2.73130086       2.59018602       0.00000000
Si       2.56325322      -0.04317936       2.79031410       0.00000000
Si       2.63615640       0.08459940      -2.72631612       0.00000000
Si       0.03082068      -2.69091252      -2.68514586       0.00000000
Si      -2.70441150       0.08575056      -2.69646198       0.00000000
Si      -0.05127006      -2.71383798       2.69863398       0.00000000
