10
Lattice="10.86 0.0 0.0 0.0 10.86 0.0 0.0 0.0 10.86" Properties=species:S:1:pos:R:3:initial_magmoms:R:1 pbc="T T T"
Si       1.35750000       1.35750000       1.35750000       0.00000000
Si      -1.35750000      -1.35750000       1.35750000       0.00000000
Si      -1.35750000       1.35750000      -1.35750000       0.00000000
Si       1.35750000      -1.35750000      -1.35750000       0.00000000
Si       2.65063278      -2.53354026       0.14824986       0.00000000
Si       0.12993990      -2.58483204       2.64405162       0.00000000
Si       2.78671944       2.47769814       0.21051024       0.00000000
Si       0.07613946       2.64495300       2.65090428       0.00000000
Si       0.02369652      -2.58942582      -2.71421808       0.00000000
Si      -2.77332906      -2.53910058       0.11515944       0.00000000
