10
Lattice="10.86 0.0 0.0 0.0 10.86 0.0 0.0 0.0 10.86" Properties=species:S:1:pos:R:3:initial_magmoms:R:1 pbc="T T T"
Si      -1.27864554       1.24908462      -1.45775952       0.00000000
Si      -1.27864554      -1.46591538       1.25724048       0.00000000
Si       1.43635446      -1.46591538      -1.45775952       0.00000000
Si       0.88253790       0.50009214       2.44670370       0.00000000
Si      -2.63614554       2.60658462      -0.10025952       0.00000000
Si      -2.63614554      -0.10841538       2.61474048       0.00000000
Si       0.07885446       2.60658462      -2.81525952       0.00000000
Si      -2.63614554      -0.10841538      -2.81525952       0.00000000
Si      -2.63614554      -2.82341538      -0.10025952       0.00000000
Si       0.02052540       2.78248404       2.72989992       0.00000000
