10
Lattice="10.86 0.0 0.0 0.0 10.86 0.0 0.0 0.0 10.86" Properties=species:S:1:pos:R:3:initial_magmoms:R:1 pbc="T T T"
Si       1.25435172      -1.14842328      -1.45845456       0.00000000
Si      -1.46064828      -1.14842328       1.25654544       0.00000000
Si       1.25435172       1.56657672       1.25654544       0.00000000
Si       2.61185172      -2.50592328      -0.10095456       0.00000000
Si      -0.10314828      -2.50592328       2.61404544       0.00000000
Si       2.61185172       0.20907672       2.61404544       0.00000000
Si      -2.74200882      -2.57597028      -0.16505028       0.00000000
Si      -0.03142884      -2.74322514      -2.60544432       0.00000000
Si       2.61185172       0.20907672      -2.81595456       0.00000000
Si      -2.81814828       0.20907672       2.61404544       0.00000000
