10
Lattice="10.86 0.0 0.0 0.0 10.86 0.0 0.0 0.0 10.86" Properties=species:S:1:pos:R:3:initial_magmoms:R:1 pbc="T T T"
Si      -0.95474604       1.35321030      -1.36706766       0.00000000
Si       1.33329306       1.29626046       1.18206756       0.00000000
Si      -1.38170694      -1.41873954       1.18206756       0.00000000
Si       1.33329306      -1.41873954      -1.53293244       0.00000000
Si      -0.02420694       2.65376046       2.53956756       0.00000000
Si      -2.64775488      -0.08509896      -2.56906332       0.00000000
Si       2.69079306      -0.06123954       2.53956756       0.00000000
Si      -2.73920694      -0.06123954       2.53956756       0.00000000
Si      -0.02420694      -2.77623954       2.53956756       0.00000000
Si       2.57181090       2.73772998      -0.25421088       0.00000000
