10
Lattice="16.290000149 0.0 0.0 0.0 16.290000149 0.0 0.0 0.0 29.1751946751" Properties=species:S:1:pos:R:3:initial_magmoms:R:1 pbc="T T T"
Si      -1.35563752      -1.31457043       1.39932694       0.00000000
Si       1.34364808       1.36907677       1.36347063       0.00000000
Si      -1.37370313       1.35208630      -1.36045100       0.00000000
Si       1.42669450      -1.37562535      -1.29384695       0.00000000
Si      -2.67615380      -2.65561211       0.00540616       0.00000000
Si      -2.54716958      -0.11570787      -2.80966169       0.00000000
Si       2.68504814      -0.00687438      -2.71939364       0.00000000
Si       2.71031393       2.71951778       0.01303839       0.00000000
Si      -0.00324171      -2.68157837       2.75600267       0.00000000
Si       2.80160310      -2.63981081       0.12377576       0.00000000
