10
Lattice="16.290000149 0.0 0.0 0.0 16.290000149 0.0 0.0 0.0 29.1751946751" Properties=species:S:1:pos:R:3:initial_magmoms:R:1 pbc="T T T"
Si       1.03645126       1.10354977      -0.21715097       0.00000000
H       -0.51681654       1.54036612       1.81615587       0.00000000
Si      -2.21574953      -0.78768667      -1.12732952       0.00000000
Si      -0.96725134       0.25474302       2.47644887       0.00000000
Si       1.04459626      -1.11208573       2.39808430       0.00000000
Si      -0.53533827      -2.46309689      -1.37581466       0.00000000
Si      -0.18003708      -2.69752628       0.98370004       0.00000000
Si       2.20191443       0.94529242       1.80203507       0.00000000
Si       2.52648617       0.02782332      -1.64125058       0.00000000
Si      -0.22721292       2.74121607      -1.37528950       0.00000000
