10
Lattice="16.290000149 0.0 0.0 0.0 16.290000149 0.0 0.0 0.0 29.1751946751" Properties=species:S:1:pos:R:3:initial_magmoms:R:1 pbc="T T T"
Si       1.41856579      -1.33073011      -1.30229316       0.00000000
Si       1.37310040       1.32654358       1.36399870       0.00000000
Si      -1.35117406      -1.37564164       1.34687286       0.00000000
Si      -1.35132067       1.31848003      -1.40843252       0.00000000
Si       0.10663434      -2.69040755      -2.64812739       0.00000000
Si       0.00384444       2.70552467       2.68659780       0.00000000
Si       2.75274939       2.64404621      -0.00020423       0.00000000
Si      -2.72100017      -0.01215234       2.68300925       0.00000000
Si      -2.71396289       2.69215058      -0.05919647       0.00000000
Si       0.01534518       2.66892104      -2.75886476       0.00000000
