10
Lattice="16.290000149 0.0 0.0 0.0 16.290000149 0.0 0.0 0.0 29.1751946751" Properties=species:S:1:pos:R:3:initial_magmoms:R:1 pbc="T T T"
Si       0.81467920      -0.98244991      -1.94341807       0.00000000
Si      -1.33077898      -1.33258717       1.39725842       0.00000000
Si       1.59339007       1.12821283       1.34074607       0.00000000
Si      -1.50599422       1.30859200      -1.29336556       0.00000000
H        1.26511399       0.30317319      -2.60371107       0.00000000
H        0.69300919       1.87147667       2.31831932       0.00000000
Si      -2.53645076       2.79744915       0.17630570       0.00000000
Si      -1.06339492      -1.69042961      -3.21819902       0.00000000
Si      -2.52956009       0.14079447       2.82634698       0.00000000
Si      -2.89465158      -2.45540801      -0.07104160       0.00000000
