10
Lattice="16.290000149 0.0 0.0 0.0 16.290000149 0.0 0.0 0.0 29.1751946751" Properties=species:S:1:pos:R:3:initial_magmoms:R:1 pbc="T T T"
Si       1.13035985      -0.97845886      -0.26610695       0.00000000
Si      -1.90331547       1.57366288      -0.27284642       0.00000000
H       -1.16713779      -1.86515615       1.90546114       0.00000000
Si      -1.54801428       1.33923349       2.08666827       0.00000000
Si      -0.23539865      -2.72104904      -1.40440635       0.00000000
Si       2.42223343      -0.86183875       1.73910418       0.00000000
Si       2.60764621       0.17433558      -1.68655965       0.00000000
Si      -0.26341745       2.62655075      -1.70464827       0.00000000
Si      -1.09852431      -0.79552216       2.97114348       0.00000000
Si      -2.97066886      -0.11337840      -1.65753034       0.00000000
