10
Lattice="16.290000149 0.0 0.0 0.0 16.290000149 0.0 0.0 0.0 29.1751946751" Properties=species:S:1:pos:R:3:initial_magmoms:R:1 pbc="T T T"
Si      -0.51715863      -0.90960103      -2.09046105       0.00000000
Si       2.05864877       1.00859536       0.72039391       0.00000000
Si      -1.41473113       1.94898449       0.00195474       0.00000000
Si      -0.68064182      -1.76494007       1.50508994       0.00000000
H        1.45503910       1.58249206      -2.36581654       0.00000000
Si      -1.94421152      -0.33705639       2.83072647       0.00000000
H        2.86756131      -0.45095607      -1.91535153       0.00000000
Si       0.26029791       1.21901329      -3.25886925       0.00000000
Si       1.05063985       2.24780825       2.56289498       0.00000000
Si      -3.08470701       1.16377390       1.44752728       0.00000000
