10
Lattice="16.290000149 0.0 0.0 0.0 16.290000149 0.0 0.0 0.0 29.1751946751" Properties=species:S:1:pos:R:3:initial_magmoms:R:1 pbc="T T T"
Si      -1.30676752      -1.44257497       1.27431415       0.00000000
Si       1.28796886      -1.42416727      -1.34984873       0.00000000
Si      -1.44394561       1.63162499      -0.91324194       0.00000000
Si       1.14821695       1.12144987       1.73458202       0.00000000
H        2.18595512       1.28389376      -0.82020225       0.00000000
Si      -0.83979838       2.02221032       2.68490564       0.00000000
Si      -2.34993026       0.17303466       2.59428749       0.00000000
Si       2.56069028       2.57988218       0.38700896       0.00000000
Si      -0.09112626       2.64416252      -2.54865748       0.00000000
Si       0.20191455      -2.45157758       2.79119087       0.00000000
