10
Lattice="16.290000149 0.0 0.0 0.0 16.290000149 0.0 0.0 0.0 29.1751946751" Properties=species:S:1:pos:R:3:initial_magmoms:R:1 pbc="T T T"
Si      -0.53141238      -0.25660008       1.38725133       0.00000000
H       -0.66937240      -0.92374075      -1.61896073       0.00000000
H       -1.59171220       0.84624922      -1.17109231       0.00000000
H        1.26768781       1.75873358       0.42266105       0.00000000
Si       0.45978525      -0.98070688      -2.62626350       0.00000000
Si       2.17842914       1.83137069      -0.79225241       0.00000000
Si       2.52190379      -0.28885428      -1.72326205       0.00000000
Si       1.15787692      -1.18672651       2.69832623       0.00000000
Si      -2.32971437      -1.85140739       1.26880004       0.00000000
Si      -1.38070783       1.61872102       2.50142284       0.00000000
