10
Lattice="16.290000149 0.0 0.0 0.0 16.290000149 0.0 0.0 0.0 29.1751946751" Properties=species:S:1:pos:R:3:initial_magmoms:R:1 pbc="T T T"
Si       1.35281935       1.01253754      -1.63541554       0.00000000
Si       1.44394561      -1.63162499       0.91324194       0.00000000
Si      -1.84435382      -1.18905272      -1.00721525       0.00000000
Si      -0.10624338       1.72255349       1.80363971       0.00000000
H       -2.27002781       1.45891612       0.48066133       0.00000000
Si       2.76516237       2.31041072      -0.24104546       0.00000000
H        3.62990073      -0.34773123       0.09303970       0.00000000
Si       0.60414724       0.39058533       3.59814758       0.00000000
Si       2.59216256      -0.51017511       2.64782397       0.00000000
Si      -2.91436248       2.30725046      -0.59380274       0.00000000
