10
Lattice="16.290000149 0.0 0.0 0.0 16.290000149 0.0 0.0 0.0 29.1751946751" Properties=species:S:1:pos:R:3:initial_magmoms:R:1 pbc="T T T"
Si      -1.36402687      -1.34737035       1.35057811       0.00000000
Si      -1.36251190       1.36611199      -1.33543619       0.00000000
Si       1.35905842       1.34377840       1.36338602       0.00000000
Si       1.36290286      -1.36216330      -1.34576420       0.00000000
Si       0.00814500      -2.69519681       2.68793986       0.00000000
Si       2.71259453       0.02565675      -2.68093781       0.00000000
Si       0.00790065       2.72450252      -2.67338144       0.00000000
Si      -2.74784610       0.01624113      -2.66083610       0.00000000
Si      -0.00047241       2.69518052       2.71772773       0.00000000
Si      -2.71256195      -2.71665074      -0.00265494       0.00000000
