10
Lattice="16.290000149 0.0 0.0 0.0 16.290000149 0.0 0.0 0.0 29.1751946751" Properties=species:S:1:pos:R:3:initial_magmoms:R:1 pbc="T T T"
Si       1.49579668      -1.24551712      -1.28817237       0.00000000
Si      -1.34798122       1.40598991      -1.37383074       0.00000000
Si      -1.37560906      -1.83337436       0.75651280       0.00000000
Si       1.06735339       1.68704129       1.38468391       0.00000000
H        2.97066886       0.11337840       1.65753034       0.00000000
Si      -2.47360394       2.52148025       0.37869403       0.00000000
Si       0.08345367      -2.54339030      -2.68254245       0.00000000
Si       2.73527022      -2.60767064       0.25312399       0.00000000
Si      -0.61305787       3.36245151       1.63316905       0.00000000
Si      -3.14638095      -0.86519449       2.00643649       0.00000000
