10
Lattice="16.290000149 0.0 0.0 0.0 16.290000149 0.0 0.0 0.0 29.1751946751" Properties=species:S:1:pos:R:3:initial_magmoms:R:1 pbc="T T T"
Si      -1.32051628      -1.34104168      -1.39392078       0.00000000
Si       1.35563752       1.31457043      -1.39932694       0.00000000
Si      -1.37902996       1.35896068       1.33566959       0.00000000
Si       1.35239581      -1.36700794       1.35667573       0.00000000
Si       2.69928560       2.68364720      -0.03585631       0.00000000
Si      -2.69469345      -2.70242957      -0.03267622       0.00000000
Si      -0.01824480       2.71296920       2.68878594       0.00000000
Si       0.09881514      -2.72279207      -2.67768478       0.00000000
Si       2.69943221      -0.01047447       2.71944907       0.00000000
Si      -0.01806561       2.66665673      -2.75977794       0.00000000
