10
Lattice="16.290000149 0.0 0.0 0.0 16.290000149 0.0 0.0 0.0 29.1751946751" Properties=species:S:1:pos:R:3:initial_magmoms:R:1 pbc="T T T"
Si       1.83210374       1.02250702      -0.94216331       0.00000000
Si       1.40621797      -1.36414090       1.25393528       0.00000000
Si      -1.32025564       1.48893353       1.20825859       0.00000000
Si      -1.30443805      -1.18413640      -1.55278147       0.00000000
Si       0.99883765       2.26677470      -2.65625268       0.00000000
Si      -2.67009392       0.09373266       2.51858077       0.00000000
Si      -2.62567109      -2.58738959      -0.21035899       0.00000000
Si       0.05051529      -2.70469388       2.56887881       0.00000000
Si       2.74398537      -2.51867837      -0.30256427       0.00000000
Si       2.82880740       0.09572004       2.47823148       0.00000000
