10
Lattice="16.290000149 0.0 0.0 0.0 16.290000149 0.0 0.0 0.0 29.1751946751" Properties=species:S:1:pos:R:3:initial_magmoms:R:1 pbc="T T T"
Si       1.30406338       1.23186610      -1.50193902       0.00000000
Si       1.44847423      -1.35148357       1.28262908       0.00000000
Si      -1.50690646       1.33204960       1.24925266       0.00000000
Si      -1.43485579      -1.40888953      -1.31685159       0.00000000
Si       2.50310513      -2.82133029      -0.19471525       0.00000000
Si      -2.81777418      -0.15579756       2.52237063       0.00000000
Si      -0.11471418       2.60211575      -2.75524703       0.00000000
Si       0.13737357      -2.70655094       2.67122247       0.00000000
Si       2.48595176      -0.22022451      -2.91325989       0.00000000
Si       3.15477030       2.16904610      -0.39371925       0.00000000
