10
Lattice="16.290000149 0.0 0.0 0.0 16.290000149 0.0 0.0 0.0 29.1751946751" Properties=species:S:1:pos:R:3:initial_magmoms:R:1 pbc="T T T"
Si      -1.16546317       0.15825735      -2.01918605       0.00000000
Si       0.22707446       1.85054402       1.43857050       0.00000000
Si       2.31142559      -0.17826147      -0.59552407       0.00000000
Si      -1.15731817      -2.05737815       0.59604923       0.00000000
H       -2.71873098       0.59507371       0.01412079       0.00000000
H       -2.20191443      -0.94529242      -1.80203507       0.00000000
Si      -3.16916577      -0.69054940       0.67441380       0.00000000
Si       1.66428904       0.66433879       2.88370542       0.00000000
Si       1.89008473      -1.99306523      -2.07852839       0.00000000
Si       0.32457174      -0.91746910      -3.44328565       0.00000000
