10
Lattice="16.290000149 0.0 0.0 0.0 16.290000149 0.0 0.0 0.0 29.1751946751" Properties=species:S:1:pos:R:3:initial_magmoms:R:1 pbc="T T T"
Si      -1.36024759      -1.36236529       1.34424709       0.00000000
Si       1.35485560       1.35316144       1.36052685       0.00000000
Si       1.36925596      -1.37898109      -1.32259910       0.00000000
Si      -1.38287440       1.33760449      -1.35159924       0.00000000
Si      -0.01975977       2.69985575      -2.68090864       0.00000000
Si       2.71661816      -0.04171869       2.66497898       0.00000000
Si      -0.00384444      -2.70552467      -2.68659780       0.00000000
Si      -2.73483038       0.00190593       2.67717421       0.00000000
Si       2.72881938       2.69549003       0.01703831       0.00000000
Si      -0.00982287      -2.73932643       2.68648110       0.00000000
