10
Lattice="16.290000149 0.0 0.0 0.0 16.290000149 0.0 0.0 0.0 29.1751946751" Properties=species:S:1:pos:R:3:initial_magmoms:R:1 pbc="T T T"
Si       1.33428133       1.36474363      -1.36904601       0.00000000
Si      -1.35822763      -1.34185618      -1.38284588       0.00000000
Si      -1.42804657       1.36001953       1.29747926       0.00000000
Si       1.39668832      -1.34003170       1.36656612       0.00000000
Si       2.69982317      -2.68612328      -0.06870758       0.00000000
Si       0.04639392      -2.71339274       2.68122957       0.00000000
Si       2.69366555       2.71033022       0.00008753       0.00000000
Si      -2.72044631      -2.69438231      -0.03705250       0.00000000
Si      -0.13652649       2.79660207       2.61371817       0.00000000
Si       2.68275125       0.01455512      -2.74325603       0.00000000
