10
Lattice="16.290000149 0.0 0.0 0.0 16.290000149 0.0 0.0 0.0 29.1751946751" Properties=species:S:1:pos:R:3:initial_magmoms:R:1 pbc="T T T"
Si       1.30023523      -1.34936587       1.41852714       0.00000000
Si      -1.37777563       1.34882830       1.35066564       0.00000000
Si      -1.42858414      -1.40405140      -1.24223603       0.00000000
Si       1.42706917       1.39059586      -1.28156127       0.00000000
Si      -2.63135630      -0.00695583      -2.68369487       0.00000000
Si       2.71437014      -0.05835078      -2.60979702       0.00000000
Si       0.05216058       2.65478132      -2.69918398       0.00000000
Si      -0.11324808      -2.72722947      -2.64289044       0.00000000
Si       2.63047664      -2.76891558       0.13236786       0.00000000
Si      -0.03073923       2.70536177       2.71343898       0.00000000
