10
Lattice="16.290000149 0.0 0.0 0.0 16.290000149 0.0 0.0 0.0 29.1751946751" Properties=species:S:1:pos:R:3:initial_magmoms:R:1 pbc="T T T"
Si       1.34039008      -1.35651718      -1.34332049       0.00000000
Si       1.30443805       1.18413640       1.55278147       0.00000000
Si      -1.32123304      -1.40325319       1.34242248       0.00000000
Si      -1.21417516       1.41490054      -1.45056851       0.00000000
Si      -0.16288371      -2.64117917      -2.62980070       0.00000000
Si       0.40316121       2.90185501      -2.39009730       0.00000000
Si      -2.70286940      -0.04680117       2.66673124       0.00000000
Si      -2.69596244       2.71354343      -0.11084357       0.00000000
Si      -2.73406476      -2.69860142      -0.00184562       0.00000000
Si      -0.01581759       2.67306993       2.76104006       0.00000000
