10
Lattice="16.290000149 0.0 0.0 0.0 16.290000149 0.0 0.0 0.0 29.1751946751" Properties=species:S:1:pos:R:3:initial_magmoms:R:1 pbc="T T T"
Si      -1.33191928      -1.35438319       1.37496857       0.00000000
Si       1.32064660      -1.37060803      -1.37674826       0.00000000
Si      -1.36031275       1.32561505      -1.39165679       0.00000000
Si       1.34141635       1.33235911       1.40574841       0.00000000
Si       2.69788466       2.67685427       0.01015297       0.00000000
Si       2.62391177      -2.75393856      -0.00472638       0.00000000
Si      -2.72921033       0.00073305       2.68475976       0.00000000
Si      -2.73487926       2.68405445      -0.07124583       0.00000000
Si       2.67600719      -0.02217069      -2.75017055       0.00000000
Si      -0.00750969       2.70001865      -2.73625398       0.00000000
