10
Lattice="16.290000149 0.0 0.0 0.0 16.290000149 0.0 0.0 0.0 29.1751946751" Properties=species:S:1:pos:R:3:initial_magmoms:R:1 pbc="T T T"
Si       1.33077898       1.33258717      -1.39725842       0.00000000
Si      -1.19878111       1.47338164       1.42908856       0.00000000
Si       1.47173635      -1.20852253       1.45485026       0.00000000
Si      -1.56387259      -1.12282084      -1.46830002       0.00000000
H        1.82747738      -3.01806462      -0.79511158       0.00000000
Si      -0.17521524       2.64117917      -2.69062398       0.00000000
Si      -2.52503147       0.09089820       2.80477193       0.00000000
Si       2.92416906       2.46080000      -0.05651235       0.00000000
Si      -2.59848308       2.89790958       0.20574347       0.00000000
H        2.02378817       3.20406384       0.92106090       0.00000000
