10
Lattice="16.290000149 0.0 0.0 0.0 16.290000149 0.0 0.0 0.0 29.1751946751" Properties=species:S:1:pos:R:3:initial_magmoms:R:1 pbc="T T T"
Si      -1.35935164       1.35754182       1.33969576       0.00000000
Si       1.34845363       1.37386440      -1.33701165       0.00000000
Si       1.38373777      -1.35902747       1.32116952       0.00000000
Si      -1.35591445      -1.37174996      -1.33774103       0.00000000
Si       2.67869504      -0.04568531      -2.62317093       0.00000000
Si       0.00869886      -2.71631028       2.65228777       0.00000000
Si      -2.72644104      -0.01105439      -2.65106241       0.00000000
Si       0.01407456       2.70402437       2.68388451       0.00000000
Si       2.73227285       0.01025293       2.67440257       0.00000000
Si      -2.70285311       0.00148891       2.70494900       0.00000000
