10
Lattice="16.290000149 0.0 0.0 0.0 16.290000149 0.0 0.0 0.0 29.1751946751" Properties=species:S:1:pos:R:3:initial_magmoms:R:1 pbc="T T T"
Si      -1.34141635      -1.33235911      -1.40574841       0.00000000
Si      -1.38642562       1.34775316       1.35521697       0.00000000
Si       1.40095239      -1.34557030       1.34967368       0.00000000
Si       1.35646831       1.34449516      -1.39559544       0.00000000
Si       2.64713969      -2.70542693      -0.09064733       0.00000000
Si      -2.67333563      -2.68674230      -0.03077983       0.00000000
Si      -2.71829603       2.66206295      -0.08816744       0.00000000
Si       0.02526579       2.70822881       2.67472350       0.00000000
Si       2.75836129       0.05696613       2.66850918       0.00000000
Si      -2.73795806      -0.03683169       2.71014218       0.00000000
