10
Lattice="16.290000149 0.0 0.0 0.0 16.290000149 0.0 0.0 0.0 29.1751946751" Properties=species:S:1:pos:R:3:initial_magmoms:R:1 pbc="T T T"
Si      -0.08283465       0.69276484       2.22951878       0.00000000
Si       0.73032958      -2.18986146      -0.40320119       0.00000000
Si       1.93750004       1.02959317      -0.90195114       0.00000000
Si      -2.20349945       0.38193534      -0.80476857       0.00000000
H        2.45151470      -0.25285338       1.49315729       0.00000000
Si       2.63044406      -1.64080538       0.88342489       0.00000000
Si      -2.15495525       2.67610493      -0.13817372       0.00000000
Si       1.46391715      -1.84536380      -2.66535826       0.00000000
Si       1.01102257       2.07179480      -2.73777109       0.00000000
Si       0.24247665       0.02555901      -3.61819094       0.00000000
