10
Lattice="16.290000149 0.0 0.0 0.0 16.290000149 0.0 0.0 0.0 29.1751946751" Properties=species:S:1:pos:R:3:initial_magmoms:R:1 pbc="T T T"
Si       1.32497974       1.33602778       1.33732382       0.00000000
Si      -1.41662728       1.34324425      -1.25476677       0.00000000
Si       1.23145885      -1.20169360      -1.59561765       0.00000000
Si      -1.46018674      -1.43729587       1.21423367       0.00000000
Si      -2.45689040      -0.51050889      -2.20616112       0.00000000
Si      -0.71140060      -2.05385609      -2.65602074       0.00000000
Si       2.62396147       2.62596773      -0.13532914       0.00000000
Si       2.64163334      -0.09933300       2.61321343       0.00000000
Si       2.53250858      -2.73143864      -0.27773327       0.00000000
Si      -0.11803734       2.66747466       2.61983620       0.00000000
