10
Lattice="16.290000149 0.0 0.0 0.0 16.290000149 0.0 0.0 0.0 29.1751946751" Properties=species:S:1:pos:R:3:initial_magmoms:R:1 pbc="T T T"
Si       1.29200878      -1.41112126       1.36213149       0.00000000
Si      -1.33643161       1.06852627       1.61983598       0.00000000
Si       1.31895244       1.32511006      -1.44329688       0.00000000
Si      -1.41169141      -1.36047565      -1.31950653       0.00000000
H       -2.52245765       1.58003227       0.82084410       0.00000000
Si       2.71393520       0.02691108       2.52849742       0.00000000
Si      -2.02830050      -0.78859891       3.04241848       0.00000000
Si      -0.34788924      -2.46400913       2.79393334       0.00000000
H       -1.88696846       3.23739318      -0.28404970       0.00000000
Si       2.60704022       2.73502587      -0.12454891       0.00000000
