10
Lattice="16.290000149 0.0 0.0 0.0 16.290000149 0.0 0.0 0.0 29.1751946751" Properties=species:S:1:pos:R:3:initial_magmoms:R:1 pbc="T T T"
Si      -1.36246057      -1.39486384      -1.31805360       0.00000000
Si       1.29403037      -1.35259129       1.43235618       0.00000000
Si      -1.35093053       1.32600601       1.40624438       0.00000000
Si       1.37417717       1.36138789      -1.36124456       0.00000000
Si      -2.66144231      -2.68480379       0.15459936       0.00000000
Si      -2.81302076      -0.01003464      -2.54389901       0.00000000
Si       0.07017732      -2.70196531      -2.66952156       0.00000000
Si       2.69469345       2.70242957       0.03267622       0.00000000
Si       2.65020546      -2.74769134       0.14316268       0.00000000
Si      -2.68076225       2.73571005       0.09613227       0.00000000
