10
Lattice="16.290000149 0.0 0.0 0.0 16.290000149 0.0 0.0 0.0 29.1751946751" Properties=species:S:1:pos:R:3:initial_magmoms:R:1 pbc="T T T"
H        0.65127421      -0.42217164       0.04484227       0.00000000
H       -1.14574087      -1.63167158       1.12919673       0.00000000
Si      -1.86105107      -1.70891876      -0.19783700       0.00000000
Si       0.85024027       1.74563642       1.75730950       0.00000000
Si      -0.08299755       0.82621252      -2.57304794       0.00000000
Si      -2.20639907       0.24117345      -1.57105506       0.00000000
Si       2.63223596       0.20012265       1.12732952       0.00000000
Si       1.40126581      -0.97529860      -2.45614294       0.00000000
Si      -0.25431948      -2.50251869      -1.72148236       0.00000000
Si      -0.37287810       3.06908490       0.24046195       0.00000000
