10
Lattice="16.290000149 0.0 0.0 0.0 16.290000149 0.0 0.0 0.0 29.1751946751" Properties=species:S:1:pos:R:3:initial_magmoms:R:1 pbc="T T T"
Si       1.34547093       1.46170171      -1.23383503       0.00000000
Si       1.38551175      -1.33981993       1.37170095       0.00000000
Si      -1.36041212       1.45824823       1.28697035       0.00000000
Si      -1.22009316      -1.49046985      -1.39737512       0.00000000
Si      -2.67988584      -2.66913281       0.01862253       0.00000000
Si      -2.66349810       0.10428858       2.72093701       0.00000000
Si      -0.01252212       2.70324407      -2.69050728       0.00000000
Si       2.79071975       0.26953434      -2.59236192       0.00000000
Si       0.03962543      -2.66892104       2.75279632       0.00000000
Si       0.03023424       2.74528857       2.72149133       0.00000000
