10
Lattice="16.290000149 0.0 0.0 0.0 16.290000149 0.0 0.0 0.0 29.1751946751" Properties=species:S:1:pos:R:3:initial_magmoms:R:1 pbc="T T T"
Si       1.41033934       1.41168816       1.25535028       0.00000000
Si      -1.25905411       1.39196422      -1.43174350       0.00000000
Si       1.43138602      -1.28133883      -1.41540539       0.00000000
Si      -1.29274183      -1.59049045       1.27761095       0.00000000
Si      -2.52437987      -2.72613152      -0.34864358       0.00000000
Si       0.28603611      -2.68107338       2.59606717       0.00000000
Si       2.88738005       0.06760350       2.46498302       0.00000000
Si      -2.57948894       2.78677920      -0.06389368       0.00000000
Si      -2.56640807       0.07758927      -2.87670337       0.00000000
Si       2.86826323      -2.65131155      -0.14733473       0.00000000
