10
Lattice="16.28999089631971 0.0 0.0 0.0 16.28999089631971 0.0 0.0 0.0 34.71893929493243" Properties=species:S:1:pos:R:3:initial_magmoms:R:1 pbc="T T T"
Si       0.73406813      -1.87820442      -1.23332157       0.00000000
Si      -1.62370479      -0.77372613       1.59794007       0.00000000
Si       2.26562134       0.77030523       0.33434357       0.00000000
Si      -1.06292739       1.36837629      -1.70105538       0.00000000
Si       1.74437392      -0.61242255      -2.95725674       0.00000000
Si      -3.39055077      -0.83720826      -0.01041569       0.00000000
Si       0.09930547       0.90016911      -3.71180387       0.00000000
Si      -3.34808274       0.86861538      -1.62925657       0.00000000
Si       3.37865189       0.50811768      -1.73014987       0.00000000
Si       2.05117979      -3.23838684       0.18925304       0.00000000
