10
Lattice="16.28999089631971 0.0 0.0 0.0 16.28999089631971 0.0 0.0 0.0 34.71893929493243" Properties=species:S:1:pos:R:3:initial_magmoms:R:1 pbc="T T T"
Si       1.11303054      -0.26218755      -2.06449344       0.00000000
Si       0.00858483       2.37413296      -0.05336304       0.00000000
Si      -2.26562134      -0.77030523      -0.33434357       0.00000000
Si       0.94542273      -1.09937952       1.94037316       0.00000000
Si      -1.53155322      -2.64850965      -1.56766514       0.00000000
Si      -0.52124742      -1.38272778      -3.29160032       0.00000000
Si       1.80659358       2.78755199       1.43708714       0.00000000
Si       0.12204468       0.34528284       3.64330337       0.00000000
Si      -3.32854873       0.59807106      -2.03539895       0.00000000
Si       0.03057633      -3.34487457       2.11747457       0.00000000
