10
Lattice="16.28999089631971 0.0 0.0 0.0 16.28999089631971 0.0 0.0 0.0 34.71893929493243" Properties=species:S:1:pos:R:3:initial_magmoms:R:1 pbc="T T T"
Si      -2.06720819      -0.03368772      -1.14937113       0.00000000
Si       2.08696077       0.76435938      -0.90099170       0.00000000
Si      -0.25544186       1.73045479       1.72952493       0.00000000
Si       0.13422960      -2.27656008       0.97522083       0.00000000
Si       3.41387901      -0.36613404       0.97570690       0.00000000
Si       1.98241155      -1.73969055       2.45751205       0.00000000
Si      -3.08049506      -2.02121433      -0.18592002       0.00000000
Si      -2.80765385       2.22081800      -0.96928389       0.00000000
Si       0.16210179      -3.62923281      -0.98320619       0.00000000
Si      -1.49973070       3.47798735       0.62605226       0.00000000
