10
Lattice="16.28999089631971 0.0 0.0 0.0 16.28999089631971 0.0 0.0 0.0 34.71893929493243" Properties=species:S:1:pos:R:3:initial_magmoms:R:1 pbc="T T T"
Si       1.18412010      -1.45591714      -1.49354017       0.00000000
Si      -0.94700286      -1.73465533       1.41236724       0.00000000
Si      -1.52307916       1.25398530      -1.47152835       0.00000000
Si       1.82777058       0.75691876       1.47836798       0.00000000
Si       2.53037457       2.55695236       0.06752837       0.00000000
Si       2.47476051      -2.83730914      -0.07714553       0.00000000
Si       2.54360205      -0.11042830      -2.85639817       0.00000000
Si      -0.17016534       2.60601784      -2.85782165       0.00000000
Si      -2.77827009      -2.75918230      -0.01607488       0.00000000
Si      -2.91194243       2.62729258      -0.07200712       0.00000000
