10
Lattice="16.28999089631971 0.0 0.0 0.0 16.28999089631971 0.0 0.0 0.0 34.71893929493243" Properties=species:S:1:pos:R:3:initial_magmoms:R:1 pbc="T T T"
Si       1.35607734       1.35634938      -1.35792791       0.00000000
Si       1.35702216      -1.35731848       1.35633084       0.00000000
Si      -1.35734796      -1.35813770      -1.35709466       0.00000000
Si      -1.35778779       1.35753855       1.35733769       0.00000000
Si       0.00219915      -2.71236223      -2.71043967       0.00000000
Si       2.71397916       0.00106211       2.71318247       0.00000000
Si       0.00029322      -2.71410526       2.71425875       0.00000000
Si       0.00052128       2.71413717       2.71439763       0.00000000
Si      -2.71495656      -0.00019222       2.71425875       0.00000000
Si       2.71466334      -2.71469170       0.00010416       0.00000000
