10
Lattice="16.28999089631971 0.0 0.0 0.0 16.28999089631971 0.0 0.0 0.0 34.71893929493243" Properties=species:S:1:pos:R:3:initial_magmoms:R:1 pbc="T T T"
Si      -1.91342340       1.35281934       0.37368015       0.00000000
Si       0.68794299      -0.49308201       2.25940568       0.00000000
Si       1.38991167       1.92601557      -0.64789049       0.00000000
Si      -0.82896552      -2.34718212       2.25860714       0.00000000
Si       2.43203184       0.52271352      -2.31946947       0.00000000
Si       0.30141387       1.66293207       3.20289338       0.00000000
Si       0.58836222      -2.82420219      -2.25523940       0.00000000
Si       1.75141935       2.83807638       1.72216451       0.00000000
Si      -0.04737132       3.01557222      -2.29648552       0.00000000
Si      -2.96914409       0.48648456      -2.33207246       0.00000000
