10
Lattice="16.28999089631971 0.0 0.0 0.0 16.28999089631971 0.0 0.0 0.0 34.71893929493243" Properties=species:S:1:pos:R:3:initial_magmoms:R:1 pbc="T T T"
Si       0.36290862      -1.81081432      -1.42024844       0.00000000
Si       1.88001261       1.31090517       0.57862617       0.00000000
Si      -1.58478894       1.73133378      -0.46287316       0.00000000
Si      -1.03651641      -1.19797800       1.81312818       0.00000000
Si       1.32882417       1.48553397       2.81303419       0.00000000
Si      -2.99015982       0.27756531      -1.70876299       0.00000000
Si      -1.74954600      -1.60535344      -2.53889329       0.00000000
Si       0.76149234      -0.78455898       3.30357836       0.00000000
Si      -2.48199327       2.02961997       1.76643118       0.00000000
Si      -3.25059294      -0.23802948       1.95308030       0.00000000
