10
Lattice="16.28999089631971 0.0 0.0 0.0 16.28999089631971 0.0 0.0 0.0 34.71893929493243" Properties=species:S:1:pos:R:3:initial_magmoms:R:1 pbc="T T T"
Si       1.44285417       0.80955713       1.73879489       0.00000000
Si      -0.37678770      -2.30103045       0.70955136       0.00000000
Si       1.52826264      -0.37530810      -1.95189986       0.00000000
Si      -1.98555552       1.58230097       0.06114009       0.00000000
Si      -2.84672637      -2.30463054       0.56442611       0.00000000
Si       1.46768013      -0.93029211       3.28493428       0.00000000
Si       1.03959522      -2.67146505      -2.63627997       0.00000000
Si       1.00466946      -3.78465849      -0.59286094       0.00000000
Si       3.72646782       1.02967738       0.97671375       0.00000000
Si       3.83785884      -0.21721365      -1.07913467       0.00000000
