10
Lattice="16.28999089631971 0.0 0.0 0.0 16.28999089631971 0.0 0.0 0.0 34.71893929493243" Properties=species:S:1:pos:R:3:initial_magmoms:R:1 pbc="T T T"
Si      -1.35140211       1.35242838       1.35765016       0.00000000
Si      -1.34320824      -1.35366642      -1.37239877       0.00000000
Si       1.34237745       1.36055709      -1.37376670       0.00000000
Si       1.36133901      -1.36119240       1.35535871       0.00000000
Si       2.52776817      -0.06937911      -2.84551725       0.00000000
Si      -2.70989363      -0.00298107       2.71495313       0.00000000
Si       0.00506619       2.71138905       2.71415460       0.00000000
Si      -2.71034649       2.71534752      -0.00312471       0.00000000
Si       0.10068849      -2.64329685      -2.77970399       0.00000000
Si      -2.70812616      -2.71961550      -0.00534672       0.00000000
