10
Lattice="16.28999089631971 0.0 0.0 0.0 16.28999089631971 0.0 0.0 0.0 34.71893929493243" Properties=species:S:1:pos:R:3:initial_magmoms:R:1 pbc="T T T"
Si      -1.35628911      -1.35723393       1.35879589       0.00000000
Si       1.36172997      -1.35685926      -1.35629612       0.00000000
Si       1.35865116       1.35795069       1.35890004       0.00000000
Si      -1.36133901       1.36119240      -1.35535871       0.00000000
Si      -2.71274112       2.71362078       0.00229145       0.00000000
Si       2.71524978       2.71259451       0.00256920       0.00000000
Si      -2.71420722      -2.71581993       0.00138876       0.00000000
Si      -2.71388142       0.00021177       2.71644605       0.00000000
Si       2.71508688      -2.71612944       0.00149292       0.00000000
Si       0.00122175      -2.71494027       2.71675852       0.00000000
