10
Lattice="16.28999089631971 0.0 0.0 0.0 16.28999089631971 0.0 0.0 0.0 34.71893929493243" Properties=species:S:1:pos:R:3:initial_magmoms:R:1 pbc="T T T"
Si      -0.95700492       1.53129258      -1.49197781       0.00000000
Si       1.40537088       1.45376847       1.24588983       0.00000000
Si      -1.45763409      -0.89406036       1.66227430       0.00000000
Si       1.24061382      -1.88291875      -0.83013030       0.00000000
Si       2.99015982      -0.27756531       1.70876299       0.00000000
Si      -2.24188586      -2.10725974      -1.74660666       0.00000000
Si      -0.26043312      -0.51559479       3.66184329       0.00000000
Si       1.55015640      -1.42015080      -3.08335600       0.00000000
Si      -0.22125730      -3.71981240      -0.47089324       0.00000000
Si      -2.57568425       2.75799474      -0.28889646       0.00000000
