10
Lattice="16.28999089631971 0.0 0.0 0.0 16.28999089631971 0.0 0.0 0.0 34.71893929493243" Properties=species:S:1:pos:R:3:initial_magmoms:R:1 pbc="T T T"
Si       1.35985662       1.34182359      -1.39073733       0.00000000
Si      -1.35141840      -1.36673100      -1.38459207       0.00000000
Si       1.30466610      -1.48191759       1.38139793       0.00000000
Si      -1.29067299       1.43075070       1.58193463       0.00000000
Si      -2.70725139       2.70668124       0.01159613       0.00000000
Si       2.70909216       2.71665072      -0.02190766       0.00000000
Si       0.00645084       2.70410742      -2.74762367       0.00000000
Si      -2.70894555      -2.74479984      -0.00836727       0.00000000
Si       2.71832859      -2.73885399      -0.02888617       0.00000000
Si      -2.71052568      -0.01270620      -2.74974153       0.00000000
