10
Lattice="16.28999089631971 0.0 0.0 0.0 16.28999089631971 0.0 0.0 0.0 34.71893929493243" Properties=species:S:1:pos:R:3:initial_magmoms:R:1 pbc="T T T"
Si       1.41366249      -1.25693640      -1.41028410       0.00000000
Si      -1.30466610       1.48191759      -1.38139793       0.00000000
Si      -1.52927262      -1.10526021       1.49996317       0.00000000
Si       1.76627583       1.20283731       1.20516449       0.00000000
Si      -2.67033825      -2.65214232       0.15335364       0.00000000
Si       2.84908842      -2.48697801       0.01944262       0.00000000
Si       0.06056622      -2.60457552      -2.77550300       0.00000000
Si      -2.65608450       0.11518659      -2.76599000       0.00000000
Si       3.59683200      -0.47355030       1.27317893       0.00000000
Si      -2.59533909       2.91266829       0.20053671       0.00000000
