10
Lattice="16.28999089631971 0.0 0.0 0.0 16.28999089631971 0.0 0.0 0.0 34.71893929493243" Properties=species:S:1:pos:R:3:initial_magmoms:R:1 pbc="T T T"
Si       1.19573487      -1.91234826       0.63848165       0.00000000
Si       0.87508251       0.63211716      -2.15129084       0.00000000
Si       0.44768178       1.33942896       1.96037128       0.00000000
Si      -2.27294370      -0.80303184       0.23928306       0.00000000
Si      -0.95206905      -0.36230589      -3.23403628       0.00000000
Si      -2.05635186      -1.20769173       2.49584178       0.00000000
Si       2.62891278       0.55729719       2.27433483       0.00000000
Si       0.61398639       2.97776313      -1.89437054       0.00000000
Si      -0.03165147      -2.54700666       2.51976315       0.00000000
Si      -3.50827956       0.99999423      -0.64938340       0.00000000
