10
Lattice="16.28999089631971 0.0 0.0 0.0 16.28999089631971 0.0 0.0 0.0 34.71893929493243" Properties=species:S:1:pos:R:3:initial_magmoms:R:1 pbc="T T T"
Si       0.87498477       1.85769531       1.22745407       0.00000000
Si       1.62852759       0.02832831      -1.75532111       0.00000000
Si      -0.05602131      -2.41394084       0.45089512       0.00000000
Si      -2.31128873       0.96630651       0.03767007       0.00000000
Si      -0.16948116      -0.38509071      -3.24577129       0.00000000
Si      -0.36035109       3.66072138       0.33878760       0.00000000
Si       2.19585942       2.29842126      -2.24586528       0.00000000
Si       1.09157661       1.45303542       3.48401279       0.00000000
Si      -2.38355769       0.57485781      -3.10581917       0.00000000
Si      -2.14298208      -3.17830022       1.35188681       0.00000000
