10
Lattice="16.28999089631971 0.0 0.0 0.0 16.28999089631971 0.0 0.0 0.0 34.71893929493243" Properties=species:S:1:pos:R:3:initial_magmoms:R:1 pbc="T T T"
Si      -1.35948195      -1.34548884       1.36285800       0.00000000
Si       1.35845568      -1.35441576      -1.35990689       0.00000000
Si      -1.35679410       1.35949728      -1.35990689       0.00000000
Si       1.36101321       1.36803650       1.37987029       0.00000000
Si      -2.54360205       0.11042830       2.85639817       0.00000000
Si       2.71627605      -2.71044423      -0.00190954       0.00000000
Si      -2.71536381      -2.71316466      -0.00225673       0.00000000
Si       0.00035838      -2.71205694      -2.71710571       0.00000000
Si      -2.71376739       2.71644614      -0.00142348       0.00000000
Si      -2.71425609       0.00210796      -2.71710571       0.00000000
