10
Lattice="16.28999089631971 0.0 0.0 0.0 16.28999089631971 0.0 0.0 0.0 34.71893929493243" Properties=species:S:1:pos:R:3:initial_magmoms:R:1 pbc="T T T"
Si      -1.08771588      -1.55374020       1.52260483       0.00000000
Si       1.53876969       1.00310562       1.59638609       0.00000000
Si      -0.61867791      -0.89427213      -2.28454220       0.00000000
Si      -1.23940836       1.96918407      -1.18075707       0.00000000
Si      -2.62000215       0.60233904      -2.49125888       0.00000000
Si       2.45462607       2.81039057       0.36145908       0.00000000
Si      -2.74831848      -2.65685013       0.19512055       0.00000000
Si      -2.32642377      -0.24387759       3.04970434       0.00000000
Si      -2.80233612       2.66789542       0.42845595       0.00000000
Si       1.19086416       1.66250853      -3.35037951       0.00000000
