10
Lattice="16.28999089631971 0.0 0.0 0.0 16.28999089631971 0.0 0.0 0.0 34.71893929493243" Properties=species:S:1:pos:R:3:initial_magmoms:R:1 pbc="T T T"
Si       1.38059379       1.36684503       1.31050182       0.00000000
Si      -1.43146746      -1.37355651       1.48180516       0.00000000
Si       2.00132424      -1.49661117       0.20671668       0.00000000
Si      -1.32691824       1.13049342      -1.87669859       0.00000000
Si      -3.41387901       0.36613404      -0.97570690       0.00000000
Si      -0.18233397       2.06555638       2.91971483       0.00000000
Si      -0.50354019      -0.31416894      -3.57962880       0.00000000
Si       2.62000215      -0.60233904       2.49125888       0.00000000
Si      -3.27964941      -1.91042604      -0.00048607       0.00000000
Si       3.45927924      -1.08113472      -1.61030002       0.00000000
