10
Lattice="16.28999089631971 0.0 0.0 0.0 16.28999089631971 0.0 0.0 0.0 34.71893929493243" Properties=species:S:1:pos:R:3:initial_magmoms:R:1 pbc="T T T"
Si      -1.24652709       1.38653475       1.45549166       0.00000000
Si       0.71386038       1.96992852      -1.25889351       0.00000000
Si       1.48074471      -1.32613210       1.42836921       0.00000000
Si      -1.88198370      -0.99338538      -1.23087531       0.00000000
Si      -2.74393647       2.61699990       0.05974091       0.00000000
Si       2.72025081       2.68882251       0.04114197       0.00000000
Si      -2.59348203       0.03306218       2.81865519       0.00000000
Si      -3.62069685       0.68039583      -1.11526461       0.00000000
Si       0.11984553      -2.68611904       2.81174612       0.00000000
Si       0.11987811       2.74197678       2.81823856       0.00000000
