10
Lattice="16.28999089631971 0.0 0.0 0.0 16.28999089631971 0.0 0.0 0.0 34.71893929493243" Properties=species:S:1:pos:R:3:initial_magmoms:R:1 pbc="T T T"
Si       1.61189550      -1.25412312       1.18848867       0.00000000
Si       1.61490915       1.67779018      -0.57480708       0.00000000
Si      -1.04280435       1.72376056       1.30593735       0.00000000
Si      -1.87509140      -1.22309067      -0.97740813       0.00000000
Si      -1.93899381      -0.13929090       2.47148786       0.00000000
Si      -2.64584624      -1.97829574       1.13222434       0.00000000
Si       3.63960954       0.33847525      -0.55088572       0.00000000
Si       0.82202598       2.70075331       2.39183910       0.00000000
Si       3.17482326      -1.95283447      -0.42072434       0.00000000
Si       1.39831731       2.08245007      -2.83136580       0.00000000
