10
Lattice="16.28999089631971 0.0 0.0 0.0 16.28999089631971 0.0 0.0 0.0 34.71893929493243" Properties=species:S:1:pos:R:3:initial_magmoms:R:1 pbc="T T T"
Si       0.60541785       2.20816000      -0.60636661       0.00000000
Si       0.11139102      -1.24689103      -2.05584842       0.00000000
Si      -2.28361365      -0.22012025       0.76208114       0.00000000
Si       1.69139070      -0.19592635       1.72199091       0.00000000
Si      -2.25878769      -1.95996949       2.30822053       0.00000000
Si      -1.27795050       3.24682669      -1.72171316       0.00000000
Si      -2.19820518      -1.40498548      -2.92861360       0.00000000
Si       1.48818924       1.97990452       3.06783663       0.00000000
Si       0.89298522       3.60958870       1.34039484       0.00000000
Si       3.00421809       2.15578765      -1.40736771       0.00000000
