10
Lattice="16.28999089631971 0.0 0.0 0.0 16.28999089631971 0.0 0.0 0.0 34.71893929493243" Properties=species:S:1:pos:R:3:initial_magmoms:R:1 pbc="T T T"
Si       0.39982176      -0.37751165      -2.25329514       0.00000000
Si      -0.91585638      -1.80728495       1.23492701       0.00000000
Si      -1.73871315       1.67378121       0.11561070       0.00000000
Si       1.88198370       0.99338538       1.23087531       0.00000000
Si       0.15824106       2.33983044      -2.39168491       0.00000000
Si      -2.07751257      -0.35999027       2.70025455       0.00000000
Si       0.63545661       2.37992013       2.68636697       0.00000000
Si      -2.45462607      -2.81039057      -0.36145908       0.00000000
Si       2.60848512      -1.05325343      -2.61812196       0.00000000
Si      -3.22924815       1.45010322      -1.67237752       0.00000000
