10
Lattice="16.28999089631971 0.0 0.0 0.0 16.28999089631971 0.0 0.0 0.0 34.71893929493243" Properties=species:S:1:pos:R:3:initial_magmoms:R:1 pbc="T T T"
Si      -1.65330468      -1.04938551       1.29171514       0.00000000
Si      -1.36003581      -0.10536372      -1.91670692       0.00000000
Si       1.14753276       1.72126656       1.27968850       0.00000000
Si       1.80449217      -1.69645689      -0.02691928       0.00000000
Si      -0.63311085      -2.31994035      -2.39058599       0.00000000
Si      -0.15589530      -2.27985066       2.68746589       0.00000000
Si       0.56855358       2.85009840      -2.10682794       0.00000000
Si       2.57364081       0.44447265       2.68956291       0.00000000
Si      -0.43544799       1.23763275      -3.58665412       0.00000000
Si       1.69186311      -1.86777882      -2.95112358       0.00000000
