10
Lattice="16.28999089631971 0.0 0.0 0.0 16.28999089631971 0.0 0.0 0.0 34.71893929493243" Properties=species:S:1:pos:R:3:initial_magmoms:R:1 pbc="T T T"
Si       1.34320824       1.35366642       1.37239877       0.00000000
Si      -1.36491792      -1.36594908       1.36705205       0.00000000
Si       1.44389673      -1.28963043      -1.40730522       0.00000000
Si      -1.45388413       1.20757770      -1.49783490       0.00000000
Si      -0.42093360      -2.26662318      -2.49320696       0.00000000
Si      -2.39583057      -0.71930124      -2.78493409       0.00000000
Si       2.68558569       2.71422351      -0.00136793       0.00000000
Si      -2.73104198       2.69821044      -0.02253608       0.00000000
Si       2.70454725      -0.00752598       2.72775748       0.00000000
Si       2.71119357      -2.72277576       0.00671465       0.00000000
