10
Lattice="16.28999089631971 0.0 0.0 0.0 16.28999089631971 0.0 0.0 0.0 34.71893929493243" Properties=species:S:1:pos:R:3:initial_magmoms:R:1 pbc="T T T"
Si      -1.35309627      -1.34763912      -1.36521889       0.00000000
Si      -1.41366249       1.25693640       1.41028410       0.00000000
Si       1.36050822       1.37202525      -1.35862229       0.00000000
Si       1.43542593      -1.23004161       1.42972672       0.00000000
Si       2.18316951       0.78338610       2.68346304       0.00000000
Si       0.35261334       2.45977371       2.61544860       0.00000000
Si       2.71448415      -2.67448568      -0.00784648       0.00000000
Si      -2.70976005      -2.69455008       0.01958149       0.00000000
Si       0.00136836      -2.70183496      -2.72127198       0.00000000
Si      -2.71208952       0.01124010      -2.72005682       0.00000000
