10
Lattice="16.28999089631971 0.0 0.0 0.0 16.28999089631971 0.0 0.0 0.0 34.71893929493243" Properties=species:S:1:pos:R:3:initial_magmoms:R:1 pbc="T T T"
Si       2.12449293      -0.24435000       0.75690802       0.00000000
Si      -1.14411186      -1.56869442       1.50482383       0.00000000
Si      -1.42521210       1.26965889      -1.64067911       0.00000000
Si       1.27003356      -1.43009910      -1.65842050       0.00000000
Si       1.55926251       0.45626661       3.01242517       0.00000000
Si       2.69969283       2.71598283      -0.33323257       0.00000000
Si      -2.72973159      -2.71599912      -0.05457820       0.00000000
Si       2.71378368      -2.75472045      -0.34802284       0.00000000
Si      -2.86034481       2.61491967      -0.24643517       0.00000000
Si       0.81686205      -2.83244004       2.59017319       0.00000000
