10
Lattice="16.28999089631971 0.0 0.0 0.0 16.28999089631971 0.0 0.0 0.0 34.71893929493243" Properties=species:S:1:pos:R:3:initial_magmoms:R:1 pbc="T T T"
Si      -2.01919437      -0.67122945      -0.89769340       0.00000000
Si      -0.00281817      -0.19012059       2.31721274       0.00000000
Si       2.07127350      -1.06355781      -0.00236089       0.00000000
Si       0.15265359       2.23231644      -0.74822828       0.00000000
Si       1.35482301      -1.38714237      -2.62832933       0.00000000
Si      -3.32289936       1.04572026       0.02166463       0.00000000
Si       1.26244242       1.65838716       2.79463314       0.00000000
Si       1.61611461       2.98036953       0.89311049       0.00000000
Si      -2.13102522       2.97888714      -0.72316119       0.00000000
Si      -1.83852198      -0.50306778      -3.28701741       0.00000000
