10
Lattice="16.28999089631971 0.0 0.0 0.0 16.28999089631971 0.0 0.0 0.0 34.71893929493243" Properties=species:S:1:pos:R:3:initial_magmoms:R:1 pbc="T T T"
Si       0.26775873       1.93991094      -1.35730297       0.00000000
Si       2.07168075       0.11225439       1.18856883       0.00000000
Si      -1.75612716      -0.20891925       1.61790348       0.00000000
Si      -0.33656769      -1.69236810      -1.70727007       0.00000000
Si      -1.87263324      -0.42036345      -3.01402224       0.00000000
Si      -0.77623479      -1.96571430       2.97631745       0.00000000
Si       2.54306448       1.72182042      -2.05570954       0.00000000
Si       2.69211798      -2.13736203       1.43191401       0.00000000
Si       1.89208350      -1.94422779      -2.56361319       0.00000000
Si       1.59482358       1.07833284       3.24011210       0.00000000
