10
Lattice="16.28999089631971 0.0 0.0 0.0 16.28999089631971 0.0 0.0 0.0 34.71893929493243" Properties=species:S:1:pos:R:3:initial_magmoms:R:1 pbc="T T T"
Si       1.35685926       1.35746199      -1.35820566       0.00000000
Si      -1.35766838      -1.35726651      -1.35869173       0.00000000
Si       1.35782037      -1.35847197       1.35751129       0.00000000
Si      -1.36069460       1.35928647       1.36317048       0.00000000
Si       2.71350675       2.71381626      -0.00163179       0.00000000
Si      -2.71473569      -2.71271180      -0.00086797       0.00000000
Si       2.71479366      -2.71542082      -0.00097213       0.00000000
Si      -0.00047893      -2.71492398      -2.71536976       0.00000000
Si       2.71445157       0.00001629      -2.71585583       0.00000000
Si      -0.00049196       2.71546155      -2.71505729       0.00000000
