10
Lattice="16.28999089631971 0.0 0.0 0.0 16.28999089631971 0.0 0.0 0.0 34.71893929493243" Properties=species:S:1:pos:R:3:initial_magmoms:R:1 pbc="T T T"
Si      -1.16165619       1.44729468       1.46532754       0.00000000
Si       0.91585638       1.80728495      -1.23492701       0.00000000
Si      -1.53876969      -1.00310562      -1.59638609       0.00000000
Si       1.56227616      -1.24828641       1.41813406       0.00000000
Si      -2.62648557      -2.55684582      -0.07378126       0.00000000
Si      -0.82285677       3.48106616      -1.11931631       0.00000000
Si      -2.66778072       2.64089149       0.16391515       0.00000000
Si      -2.50911612       0.11692962       2.81946414       0.00000000
Si       0.20186568      -2.59973739       2.81314529       0.00000000
Si       2.79784008       2.80067032      -0.00405170       0.00000000
