10
Lattice="16.28999089631971 0.0 0.0 0.0 16.28999089631971 0.0 0.0 0.0 34.71893929493243" Properties=species:S:1:pos:R:3:initial_magmoms:R:1 pbc="T T T"
Si      -2.31088311      -0.63884493       0.13127238       0.00000000
Si       1.17807651       0.41036139       2.06067436       0.00000000
Si      -0.43914582       2.49965230       0.10568451       0.00000000
Si       1.65193632       0.97840998      -2.15125612       0.00000000
Si      -0.20106747      -3.12181560      -0.05308529       0.00000000
Si      -0.05550003       2.72727410      -2.17403176       0.00000000
Si       1.25970570       2.79176132       1.66973888       0.00000000
Si       0.93936285      -0.86209938      -3.39874302       0.00000000
Si      -3.09751092       0.91588896       1.77070161       0.00000000
Si       2.06946531      -2.88709299      -1.11218712       0.00000000
