10
Lattice="16.28999089631971 0.0 0.0 0.0 16.28999089631971 0.0 0.0 0.0 34.71893929493243" Properties=species:S:1:pos:R:3:initial_magmoms:R:1 pbc="T T T"
Si      -1.43275437       1.26381078      -1.34036012       0.00000000
Si       0.71257347       1.84050936       1.24748690       0.00000000
Si       1.31688360      -1.44533025      -1.32556984       0.00000000
Si      -0.57519990      -2.96033283       1.09014058       0.00000000
Si       1.13010246      -2.02499361       2.28655590       0.00000000
Si      -0.93936285       0.86209938       3.39874302       0.00000000
Si       2.58372432       2.71253491       0.07474992       0.00000000
Si      -0.06488307       2.63157765      -2.69176087       0.00000000
Si       2.65536774      -0.08866647      -2.69353153       0.00000000
Si      -2.80028358       2.56699449       0.06912545       0.00000000
