10
Lattice="16.28999089631971 0.0 0.0 0.0 16.28999089631971 0.0 0.0 0.0 34.71893929493243" Properties=species:S:1:pos:R:3:initial_magmoms:R:1 pbc="T T T"
Si       1.90327473       1.07100234       0.87578573       0.00000000
Si      -0.05611905      -0.29488158      -2.34641139       0.00000000
Si      -2.26401678       0.83676843       0.26310027       0.00000000
Si       0.39423429      -1.60449984       1.98300804       0.00000000
Si      -1.73876202      -2.69369811       1.25040330       0.00000000
Si      -1.91242971       2.97807264       1.01427966       0.00000000
Si      -2.37544038       0.12370626      -2.86351556       0.00000000
Si       1.16388792       1.41226155      -3.43613534       0.00000000
Si       0.75122964      -2.36100744      -3.19525521       0.00000000
Si       2.07829449      -3.22258554       1.40215987       0.00000000
