10
Lattice="16.28999089631971 0.0 0.0 0.0 16.28999089631971 0.0 0.0 0.0 34.71893929493243" Properties=species:S:1:pos:R:3:initial_magmoms:R:1 pbc="T T T"
Si       0.18233397      -1.87289388       1.42167192       0.00000000
Si      -0.83926569       1.64924847       1.49572746       0.00000000
Si       2.04838605      -0.21014100      -1.24849375       0.00000000
Si      -0.87338672      -2.73922866      -1.28408069       0.00000000
Si       0.68533659      -1.55725884      -2.69693399       0.00000000
Si      -2.12764409      -2.52944604       0.93137079       0.00000000
Si      -1.09630234       3.11090130      -1.25713878       0.00000000
Si      -2.10565259       1.34275212      -2.64992452       0.00000000
Si      -3.20374520       1.42337133       1.09618168       0.00000000
Si       3.48566904      -1.29969765       0.40010128       0.00000000
