10
Lattice="16.28999089631971 0.0 0.0 0.0 16.28999089631971 0.0 0.0 0.0 34.71893929493243" Properties=species:S:1:pos:R:3:initial_magmoms:R:1 pbc="T T T"
Si       1.35628652      -1.35722365      -1.36410789       0.00000000
Si      -1.35842310       1.36149982      -1.36344823       0.00000000
Si       1.36121913       1.36370712       1.38122433       0.00000000
Si      -1.36717083      -1.35284164       1.38615443       0.00000000
Si       2.71253654      -2.71387114      -0.00590222       0.00000000
Si       2.71413296       2.71573965      -0.00506897       0.00000000
Si      -2.71552671      -2.71519063      -0.00472178       0.00000000
Si       2.71364426       0.00140147      -2.72075120       0.00000000
Si      -0.00099770      -2.71377340      -2.72099423       0.00000000
Si      -2.71883358       2.71784106      -0.00576335       0.00000000
