10
Lattice="16.28999089631971 0.0 0.0 0.0 16.28999089631971 0.0 0.0 0.0 34.71893929493243" Properties=species:S:1:pos:R:3:initial_magmoms:R:1 pbc="T T T"
Si      -1.28966301       1.30138366      -1.41476285       0.00000000
Si       1.33682256       1.34463036       1.35830982       0.00000000
Si      -1.87115085      -0.87202555       1.17273699       0.00000000
Si       1.41999930      -1.43885239      -1.37740525       0.00000000
Si      -2.58372432      -2.71253491      -0.07474992       0.00000000
Si       1.24491438      -0.51498133       3.50338597       0.00000000
Si      -2.56872123       2.74582774       0.02281036       0.00000000
Si       0.06833655       2.63183032      -2.76932302       0.00000000
Si       2.75952600       2.65100365       0.01718588       0.00000000
Si      -2.64860739      -0.08095726      -2.76651079       0.00000000
