10
Lattice="16.28999089631971 0.0 0.0 0.0 16.28999089631971 0.0 0.0 0.0 34.71893929493243" Properties=species:S:1:pos:R:3:initial_magmoms:R:1 pbc="T T T"
Si      -0.62278299      -0.84316388      -2.06855556       0.00000000
Si       1.84647150       1.23963642      -0.73572945       0.00000000
Si       1.64450808      -1.46878948       0.85068393       0.00000000
Si      -1.93974804       0.46323873       1.30060691       0.00000000
Si       3.06218021      -0.80008172      -1.02608411       0.00000000
Si      -2.90874240      -1.09800464      -1.57374096       0.00000000
Si       0.57640536      -3.49986482       0.30229797       0.00000000
Si      -3.45949101       0.88826112      -0.39770567       0.00000000
Si       0.11891700       0.83707794      -3.57067131       0.00000000
Si       2.92938902       2.16976284       1.10531277       0.00000000
