10
Lattice="16.28999089631971 0.0 0.0 0.0 16.28999089631971 0.0 0.0 0.0 34.71893929493243" Properties=species:S:1:pos:R:3:initial_magmoms:R:1 pbc="T T T"
Si       0.57111111       1.75326012      -1.49669959       0.00000000
Si       1.18819164      -1.99032849      -1.02775062       0.00000000
Si       1.28987056       0.75631212       2.06734040       0.00000000
Si      -2.63034630      -0.83440638      -0.77760052       0.00000000
Si      -2.51771724      -0.66308445       2.14660378       0.00000000
Si      -0.51132681       0.05580954       3.44663926       0.00000000
Si      -1.28930463       2.09935746      -2.95753450       0.00000000
Si       2.21163207       1.00874196      -3.02565309       0.00000000
Si       3.26476754      -0.79100982       2.35906753       0.00000000
Si       2.51961570      -1.32370911      -2.96801962       0.00000000
