10
Lattice="16.28999089631971 0.0 0.0 0.0 16.28999089631971 0.0 0.0 0.0 34.71893929493243" Properties=species:S:1:pos:R:3:initial_magmoms:R:1 pbc="T T T"
Si      -1.35501849       1.35676152      -1.36355238       0.00000000
Si       1.36069460      -1.35928647      -1.36317048       0.00000000
Si      -1.36694277      -1.34561916       1.37438470       0.00000000
Si       1.35764185       1.35762489       1.39157058       0.00000000
Si      -2.71208952       2.71329498      -0.00861030       0.00000000
Si      -2.71445157      -2.71565703      -0.00635357       0.00000000
Si       2.71670678       2.71344159      -0.00034719       0.00000000
Si      -2.71254564      -0.00115659      -2.72078592       0.00000000
Si       0.00238963       2.71363707      -2.72102895       0.00000000
Si       2.71851497      -2.71775844      -0.00565919       0.00000000
