10
Lattice="16.28999089631971 0.0 0.0 0.0 16.28999089631971 0.0 0.0 0.0 34.71893929493243" Properties=species:S:1:pos:R:3:initial_magmoms:R:1 pbc="T T T"
Si      -2.27812392      -0.44487990       0.27108563       0.00000000
Si       1.18591200       1.89838773       0.79207832       0.00000000
Si       1.00483236      -1.06924302       1.93655408       0.00000000
Si       0.18572229      -0.45613629      -2.40460036       0.00000000
Si       1.46942316       1.06235235       2.95791641       0.00000000
Si       3.23543576       1.34359920      -0.35802190       0.00000000
Si       2.62351169      -2.29594518       0.73347272       0.00000000
Si       0.66013596       1.74887811      -3.06832269       0.00000000
Si       1.54059417      -3.22607160      -1.10756950       0.00000000
Si      -2.97030231      -1.54233720      -1.70990872       0.00000000
