10
Lattice="16.28999089631971 0.0 0.0 0.0 16.28999089631971 0.0 0.0 0.0 34.71893929493243" Properties=species:S:1:pos:R:3:initial_magmoms:R:1 pbc="T T T"
Si       0.58880205       1.97633538      -1.12801897       0.00000000
Si       0.51929262      -1.62065952      -1.62963848       0.00000000
Si       1.44526509      -0.66187899       1.77170846       0.00000000
Si      -2.22865119       0.25185969       0.85634312       0.00000000
Si       0.97502166      -2.95101495       1.70025685       0.00000000
Si       2.68602552       1.39753539      -2.08782458       0.00000000
Si      -1.33823979      -1.65123585      -3.02568781       0.00000000
Si      -1.89208350       1.94422779       2.56361319       0.00000000
Si       0.65098098       3.66604821       0.50790365       0.00000000
Si       1.10203479      -3.65229945      -0.56137084       0.00000000
