10
Lattice="16.28999089631971 0.0 0.0 0.0 16.28999089631971 0.0 0.0 0.0 34.71893929493243" Properties=species:S:1:pos:R:3:initial_magmoms:R:1 pbc="T T T"
Si       1.95145633       0.73394595       1.13661122       0.00000000
Si      -1.60982667       1.75151709      -0.29915803       0.00000000
Si      -0.83919564      -2.04507918       0.94048035       0.00000000
Si       0.33687720       0.11302002      -2.43479062       0.00000000
Si      -0.58388247      -2.06327511      -2.41885462       0.00000000
Si      -2.06182530      -0.64769040       2.42472972       0.00000000
Si       0.63575702       2.09670219       2.44546735       0.00000000
Si      -3.30292782       0.70126821       0.92542273       0.00000000
Si      -0.62467263       3.46566492       0.94088309       0.00000000
Si       2.95307468       2.47363650      -0.00044614       0.00000000
