10
Lattice="16.28999089631971 0.0 0.0 0.0 16.28999089631971 0.0 0.0 0.0 34.71893929493243" Properties=species:S:1:pos:R:3:initial_magmoms:R:1 pbc="T T T"
Si      -1.35443205      -1.35044100       1.35914655       0.00000000
Si       1.36062225       1.36306575       1.35956318       0.00000000
Si      -1.24110252       1.34895861      -1.49930698       0.00000000
Si       1.22262966      -1.39738878      -1.48424937       0.00000000
Si       2.06182530       0.64769040      -2.42472972       0.00000000
Si       0.45199863       2.39920749      -2.72388775       0.00000000
Si      -2.30842332      -0.32834124      -2.82089252       0.00000000
Si      -0.67759884      -2.31443433      -2.81196975       0.00000000
Si       0.00327429      -2.70866862       2.71762996       0.00000000
Si      -2.71080261       2.71552671      -0.03683682       0.00000000
