10
Lattice="16.28999089631971 0.0 0.0 0.0 16.28999089631971 0.0 0.0 0.0 34.71893929493243" Properties=species:S:1:pos:R:3:initial_magmoms:R:1 pbc="T T T"
Si      -1.76663421      -0.50692851      -1.42531741       0.00000000
Si       0.02368566      -1.85543100       1.60797385       0.00000000
Si      -0.36738837       2.15058951       1.32355614       0.00000000
Si       1.72677258      -0.25845714      -2.10518406       0.00000000
Si       2.77337154       0.12803940       0.11485032       0.00000000
Si      -2.71850778      -1.46297232       1.79000535       0.00000000
Si       0.93190203       3.71561868      -0.13373743       0.00000000
Si      -0.10283877      -1.26938196      -3.64316449       0.00000000
Si      -1.30417740      -2.83330341      -2.34648082       0.00000000
Si       1.29836187      -3.80547432       0.23386691       0.00000000
