10
Lattice="16.28999089631971 0.0 0.0 0.0 16.28999089631971 0.0 0.0 0.0 34.71893929493243" Properties=species:S:1:pos:R:3:initial_magmoms:R:1 pbc="T T T"
Si       0.47685717      -0.96607845      -2.05154327       0.00000000
Si      -1.36705680      -1.43158149       1.21603153       0.00000000
Si      -1.68406020       1.61808570       0.58084818       0.00000000
Si       2.10820293       0.16185744       1.17027194       0.00000000
Si      -0.04733874      -0.73699218       3.20188653       0.00000000
Si      -1.59482358      -1.07833284      -3.24011210       0.00000000
Si      -1.67816322       1.24910091       3.19296376       0.00000000
Si       1.09729440      -3.21569487      -1.80819809       0.00000000
Si      -3.81705651       0.52888743      -0.15175657       0.00000000
Si      -2.37105837      -3.04404714      -0.26379465       0.00000000
