10
Lattice="16.28999089631971 0.0 0.0 0.0 16.28999089631971 0.0 0.0 0.0 34.71893929493243" Properties=species:S:1:pos:R:3:initial_magmoms:R:1 pbc="T T T"
Si      -0.92075967      -2.17629513       0.01593600       0.00000000
Si      -1.03493628       1.14725583      -1.84472243       0.00000000
Si       2.17978838       0.89191008      -0.68358158       0.00000000
Si      -0.33687720      -0.11302002       2.43479062       0.00000000
Si      -1.94670387       1.63849707       2.13563259       0.00000000
Si       2.20766057      -0.46076265      -2.64200860       0.00000000
Si       0.04191417      -0.03464883      -3.63413756       0.00000000
Si       0.96945115      -3.71123667      -0.40204554       0.00000000
Si       1.61457913       0.62092593       3.57140183       0.00000000
Si      -3.02896260      -2.33815257      -1.15433594       0.00000000
