10
Lattice="16.28999089631971 0.0 0.0 0.0 16.28999089631971 0.0 0.0 0.0 34.71893929493243" Properties=species:S:1:pos:R:3:initial_magmoms:R:1 pbc="T T T"
Si      -0.98515404      -1.71414783      -1.24004112       0.00000000
Si       1.26042965      -1.36896273       1.50458427       0.00000000
Si      -1.43164665       1.32499602       1.45319326       0.00000000
Si       1.98091191       0.79107498      -1.19531872       0.00000000
Si       0.62467263      -3.46566492      -0.94088309       0.00000000
Si       2.57612896      -2.73171897       0.19572813       0.00000000
Si       2.68776433       2.63007981       0.14394480       0.00000000
Si       3.57774731      -0.99202842      -0.94132922       0.00000000
Si      -2.67825519      -2.76439671      -0.01546035       0.00000000
Si       2.63422399      -0.03155373       2.84629148       0.00000000
