10
Lattice="16.28999089631971 0.0 0.0 0.0 16.28999089631971 0.0 0.0 0.0 34.71893929493243" Properties=species:S:1:pos:R:3:initial_magmoms:R:1 pbc="T T T"
Si      -1.36089918      -1.35998694       1.38337691       0.00000000
Si       1.35581670       1.35801489       1.39098036       0.00000000
Si       1.43164665      -1.32499602      -1.45319326       0.00000000
Si      -1.48074471       1.32613210      -1.42836921       0.00000000
Si       2.69207630      -2.69395875       0.05139100       0.00000000
Si       2.69468938       2.69227178       0.01893919       0.00000000
Si      -2.71630863      -2.72282463      -0.00618345       0.00000000
Si      -2.72727180       2.71266686       0.02712245       0.00000000
Si      -0.00324171       2.71168946       2.74727648       0.00000000
Si       2.71193589      -0.00360129       2.74911659       0.00000000
