10
Lattice="16.28999089631971 0.0 0.0 0.0 16.28999089631971 0.0 0.0 0.0 34.71893929493243" Properties=species:S:1:pos:R:3:initial_magmoms:R:1 pbc="T T T"
Si       1.35534429      -1.35772263       1.35681691       0.00000000
Si       1.35731137       1.35702216      -1.35737241       0.00000000
Si      -1.35721764       1.35560493       1.35890004       0.00000000
Si      -1.35767376      -1.35773892      -1.35740713       0.00000000
Si      -2.69570178      -0.00105885       2.72686174       0.00000000
Si       2.71380716      -2.71327869       0.00055550       0.00000000
Si       0.01262475      -2.72228706       2.70575261       0.00000000
Si       2.71459559       2.71357191      -0.00048607       0.00000000
Si       2.71408083       0.00016290      -2.71446707       0.00000000
Si      -0.00048870       2.71476108      -2.71394628       0.00000000
