10
Lattice="16.28999089631971 0.0 0.0 0.0 16.28999089631971 0.0 0.0 0.0 34.71893929493243" Properties=species:S:1:pos:R:3:initial_magmoms:R:1 pbc="T T T"
Si      -1.34835588      -1.36234899      -1.39087620       0.00000000
Si       1.36717083       1.35284164      -1.38615443       0.00000000
Si       1.47319904      -1.29661884       1.45052338       0.00000000
Si      -1.41999930       1.43885239       1.37740525       0.00000000
Si      -2.68684002      -2.71901277      -0.02291451       0.00000000
Si       2.71981002      -2.71311579      -0.02010228       0.00000000
Si       2.72838996       2.71654876      -0.00493009       0.00000000
Si      -2.70966231       2.74023605      -0.03735760       0.00000000
Si      -2.70607851      -0.00263898      -2.74741536       0.00000000
Si       0.00874773       2.71434147      -2.74960265       0.00000000
