10
Lattice="16.28999089631971 0.0 0.0 0.0 16.28999089631971 0.0 0.0 0.0 34.71893929493243" Properties=species:S:1:pos:R:3:initial_magmoms:R:1 pbc="T T T"
Si      -1.14010452      -0.58855770       1.90839700       0.00000000
Si       2.05981090      -1.01444346       0.21188980       0.00000000
Si       1.06810272       2.03107534       0.54838595       0.00000000
Si      -1.27614231      -0.61947612      -1.90909138       0.00000000
Si       0.02314809       0.94555305      -3.36638495       0.00000000
Si      -0.57640536       3.49986482      -0.30229797       0.00000000
Si       2.82465572      -0.81410904      -2.02887179       0.00000000
Si       3.08873128       0.41852268       1.82409937       0.00000000
Si      -0.99891909      -2.93195565       2.04991148       0.00000000
Si      -1.19918835       2.65670093      -2.37085353       0.00000000
