10
Lattice="16.28999089631971 0.0 0.0 0.0 16.28999089631971 0.0 0.0 0.0 34.71893929493243" Properties=species:S:1:pos:R:3:initial_magmoms:R:1 pbc="T T T"
Si       1.14010452       0.58855770      -1.90839700       0.00000000
Si      -2.22586560       0.72303165       0.17040065       0.00000000
Si       0.14118543      -2.34339795       0.14151448       0.00000000
Si       0.78144759       0.97552665       1.99824967       0.00000000
Si      -2.57953779      -0.59895072       2.07192330       0.00000000
Si       3.19991542      -0.42588576      -1.69650720       0.00000000
Si       2.20820724       2.61963304      -1.36001105       0.00000000
Si       1.10436426      -2.71116099       2.30381122       0.00000000
Si       0.73897956      -0.73029699       3.61709056       0.00000000
Si      -0.76784544       2.73135637       2.52028393       0.00000000
