10
Lattice="16.28999089631971 0.0 0.0 0.0 16.28999089631971 0.0 0.0 0.0 34.71893929493243" Properties=species:S:1:pos:R:3:initial_magmoms:R:1 pbc="T T T"
Si       2.16904608      -0.80817948      -0.16401236       0.00000000
Si       0.05654259       2.00169891       1.23221056       0.00000000
Si      -1.90327473      -1.07100234      -0.87578573       0.00000000
Si      -1.50904044      -2.67550218       1.10722231       0.00000000
Si       3.18233295       1.17934713      -1.12746346       0.00000000
Si       0.13447395       3.67111344      -0.44773569       0.00000000
Si      -2.15212077       2.67744069       1.59703738       0.00000000
Si      -1.95939378      -1.36588392      -3.22219712       0.00000000
Si       1.25727849      -0.31693824       3.81634266       0.00000000
Si       3.20398236      -1.95543531       1.68071007       0.00000000
