10
Lattice="16.28999089631971 0.0 0.0 0.0 16.28999089631971 0.0 0.0 0.0 34.71893929493243" Properties=species:S:1:pos:R:3:initial_magmoms:R:1 pbc="T T T"
Si       1.35006633       1.34728074      -1.36111858       0.00000000
Si      -1.35856061       1.35435060       1.36070543       0.00000000
Si       1.35894438      -1.36291914       1.36077487       0.00000000
Si      -1.36390373      -1.37080350      -1.39181014       0.00000000
Si      -0.06162018       2.72950353      -2.64514719       0.00000000
Si      -2.71427957       2.71093293       0.00253448       0.00000000
Si       2.71034649      -2.71534752       0.00312471       0.00000000
Si       2.58574428      -0.00690696      -2.83434122       0.00000000
Si       2.71492398       2.71241532       0.00093741       0.00000000
Si       0.00040399       2.71135647       2.71762649       0.00000000
