10
Lattice="16.28999089631971 0.0 0.0 0.0 16.28999089631971 0.0 0.0 0.0 34.71893929493243" Properties=species:S:1:pos:R:3:initial_magmoms:R:1 pbc="T T T"
Si       1.35140211      -1.35242838      -1.35765016       0.00000000
Si      -1.35849152      -1.35540945       1.35730297       0.00000000
Si       1.35646830       1.35896067       1.35650444       0.00000000
Si      -1.35894438       1.36291914      -1.36077487       0.00000000
Si       2.69377956       0.00812871      -2.73141686       0.00000000
Si       2.71274112      -2.71362078      -0.00229145       0.00000000
Si      -0.00114030      -2.71340901       2.71415460       0.00000000
Si       2.71410948       0.00123804       2.71484898       0.00000000
Si       2.71287144       2.71661814      -0.00090269       0.00000000
Si      -2.71664162      -2.71300176      -0.00072910       0.00000000
