10
Lattice="16.28999089631971 0.0 0.0 0.0 16.28999089631971 0.0 0.0 0.0 34.71893929493243" Properties=species:S:1:pos:R:3:initial_magmoms:R:1 pbc="T T T"
Si      -1.35682668       1.35897696      -1.36330935       0.00000000
Si       1.35749457      -1.35891180      -1.36445508       0.00000000
Si      -1.35906493      -1.35581670       1.39191777       0.00000000
Si       1.36076886       1.36047564       1.39688258       0.00000000
Si       2.71552671       2.71309950      -0.00184010       0.00000000
Si       2.71660185      -2.71293660       0.00069438       0.00000000
Si      -2.71528955       2.71453302      -0.00704795       0.00000000
Si      -2.71670678      -2.71344159       0.00034719       0.00000000
Si      -2.71431714       0.00019548      -2.72068176       0.00000000
Si       0.00081450       2.71533123      -2.72061232       0.00000000
