10
Lattice="16.28999089631971 0.0 0.0 0.0 16.28999089631971 0.0 0.0 0.0 34.71893929493243" Properties=species:S:1:pos:R:3:initial_magmoms:R:1 pbc="T T T"
Si       1.70530399       0.87355125      -1.41226308       0.00000000
Si      -1.00935025      -1.76814918      -1.39278575       0.00000000
Si      -1.67903215       1.85948721       0.01426949       0.00000000
Si       0.25703665      -1.46165283       2.75286624       0.00000000
Si       1.16649595       0.76572774       2.87316743       0.00000000
Si      -0.63243319       2.24598375       2.23430387       0.00000000
Si       1.09630234      -3.11090130       1.25713878       0.00000000
Si      -2.10744286      -1.68752997       2.35332046       0.00000000
Si       0.42099224       2.19657618      -2.91517737       0.00000000
Si      -2.87225836      -2.37698793      -0.05464764       0.00000000
