10
Lattice="16.28999089631971 0.0 0.0 0.0 16.28999089631971 0.0 0.0 0.0 34.71893929493243" Properties=species:S:1:pos:R:3:initial_magmoms:R:1 pbc="T T T"
Si       1.54520587       1.44782262       0.95091756       0.00000000
Si       0.09859360       0.58940478      -2.32863528       0.00000000
Si      -2.21402833       0.50795478       0.86054411       0.00000000
Si       0.94391753      -2.23441785       0.36232705       0.00000000
Si      -1.90355722      -0.38646396      -2.91434411       0.00000000
Si      -3.17720716       0.87571782      -1.30175264       0.00000000
Si      -0.97939294      -3.45439224      -0.32420564       0.00000000
Si       2.86231753       0.08764020       2.37349217       0.00000000
Si       1.89793324      -2.11848192       2.52566537       0.00000000
Si       2.55551167       2.71360449      -0.77301762       0.00000000
