10
Lattice="16.28999089631971 0.0 0.0 0.0 16.28999089631971 0.0 0.0 0.0 34.71893929493243" Properties=species:S:1:pos:R:3:initial_magmoms:R:1 pbc="T T T"
Si      -1.31711166       1.36018242      -1.42257461       0.00000000
Si       0.24501789       0.66381750       2.26256510       0.00000000
Si       2.18644380       0.03445335      -1.00750946       0.00000000
Si      -0.96438429      -2.20612212       0.15217320       0.00000000
Si      -1.91840000      -2.32205805      -2.01116512       0.00000000
Si       2.21498388      -0.58158558       2.82775503       0.00000000
Si      -2.86231753      -0.08764020      -2.37349217       0.00000000
Si       3.63223017      -0.45994815       0.85748884       0.00000000
Si       1.15986429       2.90931255       2.08546369       0.00000000
Si       2.16728676      -1.82832444      -2.50886139       0.00000000
