10
Lattice="16.28999089631971 0.0 0.0 0.0 16.28999089631971 0.0 0.0 0.0 34.71893929493243" Properties=species:S:1:pos:R:3:initial_magmoms:R:1 pbc="T T T"
Si      -1.70085519      -0.92924676      -1.19917652       0.00000000
Si      -1.27544184       1.39918068       1.27065487       0.00000000
Si       1.43596350      -1.33374375       1.22434672       0.00000000
Si       0.96005115       1.57802926      -1.39690168       0.00000000
Si      -0.28908234      -1.86108363      -2.83481135       0.00000000
Si       2.63337624       2.55413095      -0.06505638       0.00000000
Si      -2.64437851       0.03122793       2.58844419       0.00000000
Si      -3.29769058       0.85385664      -1.45316601       0.00000000
Si       0.07407063      -2.68602552       2.58396544       0.00000000
Si      -2.59083816       2.69286147      -0.11390249       0.00000000
