10
Lattice="16.28999089631971 0.0 0.0 0.0 16.28999089631971 0.0 0.0 0.0 34.71893929493243" Properties=species:S:1:pos:R:3:initial_magmoms:R:1 pbc="T T T"
Si       1.35728422       1.35654975       1.35688634       0.00000000
Si       1.35676945      -1.35685926      -1.35709466       0.00000000
Si      -1.35731137      -1.35702216       1.35737241       0.00000000
Si      -1.35780007       1.35773892      -1.35657387       0.00000000
Si      -0.00109444       2.71440150      -2.71328662       0.00000000
Si      -0.00219514      -2.71386513      -2.71401572       0.00000000
Si       2.71413696      -2.71394658       0.00062494       0.00000000
Si       2.71397406       0.00122175      -2.71446707       0.00000000
Si       2.71353423      -0.00009774       2.71509201       0.00000000
Si      -0.00196708      -2.71474479       2.71418932       0.00000000
