10
Lattice="16.28999089631971 0.0 0.0 0.0 16.28999089631971 0.0 0.0 0.0 34.71893929493243" Properties=species:S:1:pos:R:3:initial_magmoms:R:1 pbc="T T T"
Si       1.63427796       1.12054023       1.22710688       0.00000000
Si      -1.64506846       1.51259166      -0.75454713       0.00000000
Si      -1.01030580      -1.26578187       1.72393518       0.00000000
Si       0.94555305      -0.80371602      -2.02095587       0.00000000
Si       3.23711622      -0.57855564       1.02597995       0.00000000
Si      -1.74437392       0.61242255       2.95725674       0.00000000
Si      -0.18319734       3.34948531      -1.11378420       0.00000000
Si      -2.67398884       0.07962552      -2.36675670       0.00000000
Si       3.25120707      -0.70610634      -1.37129471       0.00000000
Si      -2.45691807      -2.12419971      -1.55561766       0.00000000
