10
Lattice="16.28999089631971 0.0 0.0 0.0 16.28999089631971 0.0 0.0 0.0 34.36671206372826" Properties=species:S:1:pos:R:3:initial_magmoms:R:1 pbc="T T T"
Si       1.35570267      -1.35406562       1.36154116       0.00000000
Si      -1.36687761      -1.34118813      -1.36503282       0.00000000
Si      -1.35876519       1.36180490       1.36130059       0.00000000
Si       1.39087278       1.35719483      -1.35333095       0.00000000
Si      -0.01089801       2.70862952      -2.57960465       0.00000000
Si       0.00545715      -2.62612460      -2.73837895       0.00000000
Si       2.70961344      -2.70850313      -0.00134030       0.00000000
Si      -2.71352304      -2.71526348       0.00158087       0.00000000
Si      -0.00172674      -2.71218467       2.71851154       0.00000000
Si       2.70821250       2.72346971       0.00852295       0.00000000
