10
Lattice="16.28999089631971 0.0 0.0 0.0 16.28999089631971 0.0 0.0 0.0 34.36671206372826" Properties=species:S:1:pos:R:3:initial_magmoms:R:1 pbc="T T T"
Si      -0.99228906      -0.32572181      -2.19710091       0.00000000
Si      -1.87815555       0.76346343       1.37316742       0.00000000
Si       0.79027677      -1.90799248       1.37625699       0.00000000
Si       1.85261283       1.81954413       0.04253570       0.00000000
Si      -1.61578881      -2.61308609      -1.58465139       0.00000000
Si      -0.56081583       2.12973831       2.73502132       0.00000000
Si       2.16508761      -0.59588820       2.73557119       0.00000000
Si       0.79935030       3.48330699       1.35658891       0.00000000
Si       3.14193375      -1.74643298      -1.36752238       0.00000000
Si       3.51904725       0.75095271       1.36455512       0.00000000
