10
Lattice="16.28999089631971 0.0 0.0 0.0 16.28999089631971 0.0 0.0 0.0 34.36671206372826" Properties=species:S:1:pos:R:3:initial_magmoms:R:1 pbc="T T T"
Si       1.47558078       1.32712186      -1.28545322       0.00000000
Si      -1.33301070      -1.39281033      -1.40051303       0.00000000
Si       1.39572720      -0.97531162       1.69434859       0.00000000
Si      -1.77038091       1.26639274       1.03306394       0.00000000
Si       0.31535811       0.18664267       3.56118379       0.00000000
Si      -3.35323460      -0.68723763       1.37886199       0.00000000
Si      -0.64255905       2.24260357       2.87570497       0.00000000
Si      -2.73978415      -2.60376006       0.04422998       0.00000000
Si      -0.00337203       2.69401577      -2.73820368       0.00000000
Si       2.69021205      -0.01074814      -2.77865332       0.00000000
