10
Lattice="16.28999089631971 0.0 0.0 0.0 16.28999089631971 0.0 0.0 0.0 34.36671206372826" Properties=species:S:1:pos:R:3:initial_magmoms:R:1 pbc="T T T"
Si       1.04153373       1.69837911      -1.17431121       0.00000000
Si      -1.37474568       0.70130079       1.73332046       0.00000000
Si      -1.14717438      -1.21749179      -1.70819838       0.00000000
Si       2.57957037      -1.30139670       0.56818517       0.00000000
Si       0.85208103       1.73954394       2.22991973       0.00000000
Si      -2.28589425      -1.69868373       1.49261587       0.00000000
Si       1.53544653      -0.69027572       2.80243510       0.00000000
Si       2.26510821       2.75059908       0.65413636       0.00000000
Si       2.44622043       0.45910107      -2.66555241       0.00000000
Si      -0.67551372       2.95933914      -2.07654100       0.00000000
