10
Lattice="16.28999089631971 0.0 0.0 0.0 16.28999089631971 0.0 0.0 0.0 34.36671206372826" Properties=species:S:1:pos:R:3:initial_magmoms:R:1 pbc="T T T"
Si      -1.35741312      -1.35746199      -1.35831069       0.00000000
Si       1.35912357      -1.35635427       1.35837942       0.00000000
Si       1.35741312       1.35861858      -1.35782955       0.00000000
Si      -1.35609363       1.35964485       1.35886055       0.00000000
Si       2.71334385       2.71388142      -0.00044677       0.00000000
Si       2.71409319       0.00050499      -2.71380330       0.00000000
Si       0.00050499      -2.71394658      -2.71449064       0.00000000
Si      -2.71470407       0.00060273      -2.71479994       0.00000000
Si       0.00047241       2.71536381      -2.71462810       0.00000000
Si      -2.71469266       2.71538010      -0.00041240       0.00000000
