10
Lattice="16.28999089631971 0.0 0.0 0.0 16.28999089631971 0.0 0.0 0.0 34.36671206372826" Properties=species:S:1:pos:R:3:initial_magmoms:R:1 pbc="T T T"
Si       0.60737265      -1.33608951       1.79768935       0.00000000
Si      -1.51088121       1.71597231       0.56371749       0.00000000
Si      -0.66135771      -1.87848135      -1.26473008       0.00000000
Si       1.87382241       1.06253154      -0.98154821       0.00000000
Si      -1.66379544       2.67066405      -1.64145819       0.00000000
Si       2.93220000      -1.72921608       1.11650637       0.00000000
Si      -0.15169248       2.84799699       2.24380388       0.00000000
Si       3.61030383       0.45089091       0.49316259       0.00000000
Si      -2.48686398      -2.71060713      -0.05869838       0.00000000
Si      -1.32092352      -2.77578342       2.02694981       0.00000000
