10
Lattice="16.28999089631971 0.0 0.0 0.0 16.28999089631971 0.0 0.0 0.0 34.36671206372826" Properties=species:S:1:pos:R:3:initial_magmoms:R:1 pbc="T T T"
Si       1.82550627       0.83212578      -1.20603170       0.00000000
Si       1.16594046      -0.06517629       2.08564819       0.00000000
Si      -1.75176144       1.63719387      -0.12832537       0.00000000
Si      -0.94767075      -2.21706737      -0.41350051       0.00000000
Si       2.56699449      -1.35842310      -1.63362257       0.00000000
Si      -3.12987752       0.49640517       1.36893001       0.00000000
Si      -2.93205339      -1.73164166       0.70304022       0.00000000
Si      -2.05335450       1.36785501      -2.48282450       0.00000000
Si       0.61260174      -1.73509677      -3.05382774       0.00000000
Si       2.48686398       2.71060713       0.05869838       0.00000000
