10
Lattice="16.28999089631971 0.0 0.0 0.0 16.28999089631971 0.0 0.0 0.0 34.36671206372826" Properties=species:S:1:pos:R:3:initial_magmoms:R:1 pbc="T T T"
Si       1.96118568       0.22533957       1.30841019       0.00000000
Si      -0.59976522      -2.30638707       0.35892614       0.00000000
Si      -1.96465545       1.39745394       0.08117422       0.00000000
Si       1.12472676       0.13986594      -2.13176834       0.00000000
Si       3.19777587      -1.59881463       0.52546732       0.00000000
Si      -2.95909479      -2.11880772       0.26104969       0.00000000
Si       2.95323039      -1.25538885      -1.80098855       0.00000000
Si      -1.77171669       2.36050245       2.26689833       0.00000000
Si      -0.49306572      -0.87304626      -3.59280119       0.00000000
Si       3.42497250       1.87450659       0.39415204       0.00000000
