10
Lattice="16.28999089631971 0.0 0.0 0.0 16.28999089631971 0.0 0.0 0.0 34.36671206372826" Properties=species:S:1:pos:R:3:initial_magmoms:R:1 pbc="T T T"
Si       1.23659019      -1.82415420      -0.78294287       0.00000000
Si      -0.27357426      -0.19675062       2.33446332       0.00000000
Si      -1.96118568      -0.22533957      -1.30841019       0.00000000
Si       1.46378682       1.64916702      -0.91425815       0.00000000
Si      -0.83645892      -0.08547363      -3.44017853       0.00000000
Si       0.99204471      -1.48072842      -3.10939875       0.00000000
Si      -2.19872646       1.17356418       2.58905207       0.00000000
Si      -2.56095090      -2.53172664      -0.94948405       0.00000000
Si       3.44007333      -1.48294386       0.12791297       0.00000000
Si       3.13478244       1.97618877       0.68750646       0.00000000
