10
Lattice="16.28999089631971 0.0 0.0 0.0 16.28999089631971 0.0 0.0 0.0 34.36671206372826" Properties=species:S:1:pos:R:3:initial_magmoms:R:1 pbc="T T T"
Si       1.34053668       1.34001540      -1.37208487       0.00000000
Si      -1.35839052       1.35255870       1.35899802       0.00000000
Si       1.35746199      -1.36117611       1.36078509       0.00000000
Si      -1.35974259      -1.37150397      -1.39962293       0.00000000
Si       2.61640206      -0.15086169      -2.73096261       0.00000000
Si      -2.71191033       2.70909216      -0.00158087       0.00000000
Si       2.71122615       2.71585251      -0.00450204       0.00000000
Si       2.71251306      -2.71492398       0.00226820       0.00000000
Si      -0.00011403       2.71217097       2.71534980       0.00000000
Si       2.71446786      -0.00262269       2.71603714       0.00000000
