10
Lattice="16.28999089631971 0.0 0.0 0.0 16.28999089631971 0.0 0.0 0.0 34.36671206372826" Properties=species:S:1:pos:R:3:initial_magmoms:R:1 pbc="T T T"
Si      -1.37233476       1.28493647       1.37334613       0.00000000
Si       1.64778237       0.60676992      -1.57277081       0.00000000
Si       1.33346682      -1.45821564       1.36945582       0.00000000
Si      -1.91172924      -0.89383230      -1.24395264       0.00000000
Si      -0.40951431      -0.15752430      -2.98943621       0.00000000
Si      -0.71425134       3.50963882      -1.04820043       0.00000000
Si      -0.00545715       2.62612460       2.73837895       0.00000000
Si      -2.67536534       2.71359376      -0.07474077       0.00000000
Si       3.47993496      -1.03092894      -1.17892047       0.00000000
Si       2.70415629      -0.08237853       2.73703865       0.00000000
