10
Lattice="16.28999089631971 0.0 0.0 0.0 16.28999089631971 0.0 0.0 0.0 34.36671206372826" Properties=species:S:1:pos:R:3:initial_magmoms:R:1 pbc="T T T"
Si       1.35707103      -1.35725022      -1.35782955       0.00000000
Si       1.35690813       1.35860229       1.35669545       0.00000000
Si      -1.35720135      -1.35887922       1.35738278       0.00000000
Si      -1.35751086       1.35754344      -1.35851689       0.00000000
Si       0.00097740       2.71174127       2.71462810       0.00000000
Si       0.00006516      -2.71580364      -2.71308160       0.00000000
Si       0.00325800      -2.71516833       2.71373457       0.00000000
Si      -2.71453302       2.71470778      -0.00027493       0.00000000
Si      -2.71438641      -2.71485882      -0.00037803       0.00000000
Si      -2.71305063      -0.00035838       2.71624334       0.00000000
