10
Lattice="16.28999089631971 0.0 0.0 0.0 16.28999089631971 0.0 0.0 0.0 34.36671206372826" Properties=species:S:1:pos:R:3:initial_magmoms:R:1 pbc="T T T"
Si      -1.37481084      -1.31210428      -1.35931420       0.00000000
Si       1.34855136      -1.35124638       1.35456471       0.00000000
Si       1.35395964       1.34684091      -1.37101607       0.00000000
Si      -1.36308204       1.36151820       1.35064691       0.00000000
Si      -2.16508761       0.59588820      -2.73557119       0.00000000
Si      -0.31247478       2.41543233      -2.69303549       0.00000000
Si      -0.07390773      -2.68005428      -2.69412491       0.00000000
Si       2.71008585      -2.70908306      -0.01034439       0.00000000
Si       2.70914103       0.00397965       2.71050410       0.00000000
Si      -0.00487071      -2.70978353       2.71022916       0.00000000
