10
Lattice="16.28999089631971 0.0 0.0 0.0 16.28999089631971 0.0 0.0 0.0 34.36671206372826" Properties=species:S:1:pos:R:3:initial_magmoms:R:1 pbc="T T T"
Si       1.36003581      -1.35221611      -1.36030396       0.00000000
Si      -1.35842310       1.36187287      -1.36047579       0.00000000
Si      -1.34353404      -1.35433381       1.38635394       0.00000000
Si       1.35702216       1.35505876       1.37559715       0.00000000
Si      -2.61656496       0.17635345       2.69235846       0.00000000
Si       2.71243161      -2.71032970      -0.00436457       0.00000000
Si      -2.71521720      -2.71158403       0.00498318       0.00000000
Si       0.00000000      -2.71104646      -2.71696504       0.00000000
Si       2.71482624       0.00357689      -2.71741181       0.00000000
Si      -2.71515204       0.00396043      -2.71754928       0.00000000
