10
Lattice="16.28999089631971 0.0 0.0 0.0 16.28999089631971 0.0 0.0 0.0 34.36671206372826" Properties=species:S:1:pos:R:3:initial_magmoms:R:1 pbc="T T T"
Si      -1.35607734      -1.35661491      -1.35776082       0.00000000
Si      -1.35490446       1.36058967       1.35614558       0.00000000
Si       1.35738054      -1.36008468       1.35807012       0.00000000
Si       1.35834165       1.35902583      -1.35827632       0.00000000
Si      -0.01291797       2.70040959       2.72655336       0.00000000
Si       2.71417464      -2.71414206      -0.00061860       0.00000000
Si      -2.71467963       0.00105885      -2.71397514       0.00000000
Si       0.00231318      -2.71427238      -2.71445627       0.00000000
Si      -2.71396287      -2.71503801      -0.00006873       0.00000000
Si      -2.71542897       2.71443528      -0.00061860       0.00000000
