10
Lattice="16.28999089631971 0.0 0.0 0.0 16.28999089631971 0.0 0.0 0.0 34.36671206372826" Properties=species:S:1:pos:R:3:initial_magmoms:R:1 pbc="T T T"
Si      -1.34601012      -1.35575154       1.35903239       0.00000000
Si       1.35679410      -1.35405738      -1.35868872       0.00000000
Si      -1.35738054       1.36008468      -1.35807012       0.00000000
Si       1.37326329       1.36467846       1.34301749       0.00000000
Si      -0.08105904       2.57510691       2.69345820       0.00000000
Si      -2.71231758      -2.71036278      -0.00075607       0.00000000
Si       2.71785618      -2.70927135       0.00027493       0.00000000
Si       0.00156384      -2.71125873      -2.71593404       0.00000000
Si      -2.71345788       0.00346977      -2.71583094       0.00000000
Si       2.71634121       0.00348606      -2.71565910       0.00000000
