10
Lattice="16.28999089631971 0.0 0.0 0.0 16.28999089631971 0.0 0.0 0.0 34.36671206372826" Properties=species:S:1:pos:R:3:initial_magmoms:R:1 pbc="T T T"
Si       1.73648142      -0.61164063       1.47471081       0.00000000
Si      -1.87382241      -1.06253154       0.98154821       0.00000000
Si       0.25992324       2.31570495      -0.49336879       0.00000000
Si       0.76067784      -0.72262440      -2.18163447       0.00000000
Si       3.49563852       0.51409611       0.32129457       0.00000000
Si       2.46340638       2.65691529       0.41748705       0.00000000
Si       1.05837759      -2.79174762       2.09805458       0.00000000
Si       3.14028846      -0.16671186      -1.91835094       0.00000000
Si      -3.38470362       0.65344077       1.54526570       0.00000000
Si      -2.91253797       0.14312394      -2.55035513       0.00000000
