10
Lattice="16.28999089631971 0.0 0.0 0.0 16.28999089631971 0.0 0.0 0.0 34.36671206372826" Properties=species:S:1:pos:R:3:initial_magmoms:R:1 pbc="T T T"
Si      -1.14710175       1.47774735      -1.38755678       0.00000000
Si      -0.98863263      -1.24172154       1.75483403       0.00000000
Si       1.13743133       1.74203631       1.13358663       0.00000000
Si       1.97729486      -1.02333780      -0.93202575       0.00000000
Si       0.65175476       1.57944582      -2.92058792       0.00000000
Si       0.93782996      -2.56216450       2.09681737       0.00000000
Si       2.95085042      -1.96163528       1.05894209       0.00000000
Si       2.81161979       0.70361397      -2.41481274       0.00000000
Si       1.07662076       1.36164852       3.57489612       0.00000000
Si      -2.79348318       0.66015225      -2.78824164       0.00000000
