10
Lattice="16.28999089631971 0.0 0.0 0.0 16.28999089631971 0.0 0.0 0.0 34.36671206372826" Properties=species:S:1:pos:R:3:initial_magmoms:R:1 pbc="T T T"
Si      -0.08604378      -1.14564312      -2.02574697       0.00000000
Si       0.46187037       2.19843324      -0.68434472       0.00000000
Si      -2.14210242       0.13211190       0.96835139       0.00000000
Si       1.95015735      -0.61195014       1.24761545       0.00000000
Si       1.67311332      -0.01990638      -3.17916321       0.00000000
Si      -0.76414761      -3.32575011      -1.40240320       0.00000000
Si       2.73584034       2.56332924      -0.08278946       0.00000000
Si      -1.87504416       1.27338930       3.00753575       0.00000000
Si       3.73894596       0.44996238       0.06636216       0.00000000
Si       1.75985757       0.56521413       3.30841649       0.00000000
