10
Lattice="16.28999089631971 0.0 0.0 0.0 16.28999089631971 0.0 0.0 0.0 34.36671206372826" Properties=species:S:1:pos:R:3:initial_magmoms:R:1 pbc="T T T"
Si      -0.19029978       1.17716427       2.06080104       0.00000000
Si       1.78878861       1.06191252      -1.18125329       0.00000000
Si      -1.95015735       0.61195014      -1.24761545       0.00000000
Si       0.21242160      -2.35252035       0.43027148       0.00000000
Si       0.78568299       3.17527938      -1.33040490       0.00000000
Si       1.60780671       0.26485911       3.29181735       0.00000000
Si      -1.48828698       2.81038338      -1.93196017       0.00000000
Si      -1.74472416      -3.32438175      -0.54388789       0.00000000
Si      -2.27771667       0.61955757       3.01973594       0.00000000
Si      -2.03620113      -0.53369298      -3.27336242       0.00000000
