10
Lattice="16.28999089631971 0.0 0.0 0.0 16.28999089631971 0.0 0.0 0.0 34.36671206372826" Properties=species:S:1:pos:R:3:initial_magmoms:R:1 pbc="T T T"
Si      -2.06967708       1.05901290       0.30060580       0.00000000
Si       1.01333574       1.20541113       1.76363192       0.00000000
Si       0.44232237       0.44966916      -2.29425425       0.00000000
Si      -0.71179155      -2.26119861       0.24836837       0.00000000
Si      -2.53008135       0.00746082       2.41522514       0.00000000
Si      -3.18803445       0.01487277      -1.51718809       0.00000000
Si       1.83770748       3.06704862       0.56729163       0.00000000
Si      -1.51482339      -0.52219224      -3.26841361       0.00000000
Si      -2.78198991      -2.09453562       1.41573749       0.00000000
Si       0.22990077       2.80218951      -2.72452572       0.00000000
