10
Lattice="16.28999089631971 0.0 0.0 0.0 16.28999089631971 0.0 0.0 0.0 34.36671206372826" Properties=species:S:1:pos:R:3:initial_magmoms:R:1 pbc="T T T"
Si       1.85042997      -1.29966507       0.63953050       0.00000000
Si       0.06261876      -0.45393714      -2.31628332       0.00000000
Si      -2.13851862      -0.48055500       0.92590847       0.00000000
Si       0.81093249       2.13441354       1.06688081       0.00000000
Si       0.04075758      -2.81667132      -2.31088774       0.00000000
Si      -0.41964669      -3.86822340      -0.19626840       0.00000000
Si       2.15003565       0.10366956      -3.27521822       0.00000000
Si       3.59183097      -0.13527216       1.63341637       0.00000000
Si      -2.50027065      -2.99835369       0.60086793       0.00000000
Si      -1.48486608       0.81184473      -3.57609896       0.00000000
