10
Lattice="16.28999089631971 0.0 0.0 0.0 16.28999089631971 0.0 0.0 0.0 34.36671206372826" Properties=species:S:1:pos:R:3:initial_magmoms:R:1 pbc="T T T"
Si       1.49760486       1.24199847      -1.21817278       0.00000000
Si      -1.07802333       1.60840944       1.40628321       0.00000000
Si       1.64551806      -1.11076623       1.39399366       0.00000000
Si      -1.50395796      -1.23380460      -1.45754604       0.00000000
Si      -2.42821998       0.26179659       2.77483518       0.00000000
Si       0.29383902      -2.45711844       2.77246388       0.00000000
Si      -2.66602140      -2.60260443      -0.01536880       0.00000000
Si       2.64298734      -0.24478983      -2.76159166       0.00000000
Si      -2.49473205       3.00385971       0.08614021       0.00000000
Si       3.14752122      -2.44395612      -0.05907297       0.00000000
