10
Lattice="16.28999089631971 0.0 0.0 0.0 16.28999089631971 0.0 0.0 0.0 34.36671206372826" Properties=species:S:1:pos:R:3:initial_magmoms:R:1 pbc="T T T"
Si      -1.16206344      -1.36879983       1.44217724       0.00000000
Si       1.50395796       1.23380460       1.45754604       0.00000000
Si      -0.03337821      -0.52846389      -2.37714680       0.00000000
Si       2.48818347      -0.49402683      -2.52482065       0.00000000
Si      -2.90512602      -2.19928032      -0.06653399       0.00000000
Si      -2.27411658       0.13245399       2.87698827       0.00000000
Si      -1.00693377       1.41910335      -3.37594711       0.00000000
Si       0.42099876      -2.58672168       2.84997945       0.00000000
Si       3.00156282       2.47580307       0.23937326       0.00000000
Si       0.42593463       2.84221404       2.86382924       0.00000000
