10
Lattice="16.28999089631971 0.0 0.0 0.0 16.28999089631971 0.0 0.0 0.0 34.36671206372826" Properties=species:S:1:pos:R:3:initial_magmoms:R:1 pbc="T T T"
Si      -1.30090311       1.36795000       1.33481072       0.00000000
Si       1.05075387       1.52950950      -1.40896866       0.00000000
Si       1.41670872      -1.39545027       1.32014299       0.00000000
Si      -1.87481610      -0.97484247      -1.23224733       0.00000000
Si      -0.40560471       0.81287100      -3.58417655       0.00000000
Si      -2.65059477      -0.02629206       2.68371179       0.00000000
Si       0.07390773       2.68005428       2.69412491       0.00000000
Si       0.06651207      -2.74206312       2.68869497       0.00000000
Si       2.78399358      -0.02902878       2.68378052       0.00000000
Si      -2.09117988       3.27594248      -0.04144628       0.00000000
