10
Lattice="16.28999089631971 0.0 0.0 0.0 16.28999089631971 0.0 0.0 0.0 34.36671206372826" Properties=species:S:1:pos:R:3:initial_magmoms:R:1 pbc="T T T"
Si      -1.35019665      -1.34661285       1.36855197       0.00000000
Si       1.36728486       1.36642149       1.36363753       0.00000000
Si      -1.41670872       1.39545027      -1.32014299       0.00000000
Si       1.07802333      -1.60840944      -1.40628321       0.00000000
Si       2.57562819      -0.36641097      -2.62445599       0.00000000
Si      -2.70005121      -2.70976005       0.01315902       0.00000000
Si      -2.70524772       0.00671148       2.72700013       0.00000000
Si       0.00878031      -2.70673011       2.72593476       0.00000000
Si       2.72354139      -2.71917567      -0.01228954       0.00000000
Si       2.72554506       0.00785178       2.72693139       0.00000000
