10
Lattice="16.28999089631971 0.0 0.0 0.0 16.28999089631971 0.0 0.0 0.0 34.36671206372826" Properties=species:S:1:pos:R:3:initial_magmoms:R:1 pbc="T T T"
Si      -0.72029493       1.75731633       1.39429265       0.00000000
Si      -2.20672485      -1.02200202       0.28108550       0.00000000
Si       1.45891611      -1.40066307       1.49588071       0.00000000
Si       0.88989012       0.43530138      -2.32270990       0.00000000
Si      -1.73084508      -3.13672095      -0.41934285       0.00000000
Si       0.95654880       3.36918644       1.36387810       0.00000000
Si      -2.84985405       2.41297435       0.70338389       0.00000000
Si      -0.87659748      -0.41355423      -3.71958006       0.00000000
Si       2.90370879      -1.16470242      -2.30600767       0.00000000
Si       3.51184707      -0.15874605       1.75380303       0.00000000
