10
Lattice="16.28999089631971 0.0 0.0 0.0 16.28999089631971 0.0 0.0 0.0 34.36671206372826" Properties=species:S:1:pos:R:3:initial_magmoms:R:1 pbc="T T T"
Si      -1.27439928       1.38758220       1.40824555       0.00000000
Si      -1.35702216      -1.35505876      -1.37559715       0.00000000
Si       1.35891180       1.36586763      -1.37728112       0.00000000
Si       1.20428712      -1.35052737       1.61338057       0.00000000
Si       2.68587891      -2.67554195      -0.01051622       0.00000000
Si      -2.70055620      -2.70939257       0.01075679       0.00000000
Si      -2.70495450       2.71938744      -0.01852367       0.00000000
Si       2.70853830       2.71595025      -0.01099735       0.00000000
Si       0.00301365      -2.70727487      -2.73590111       0.00000000
Si      -2.71544526       0.00681411      -2.73607294       0.00000000
