10
Lattice="16.28999089631971 0.0 0.0 0.0 16.28999089631971 0.0 0.0 0.0 34.36671206372826" Properties=species:S:1:pos:R:3:initial_magmoms:R:1 pbc="T T T"
Si       1.35729095      -1.35806472       1.35648925       0.00000000
Si      -1.35754663       1.35723393       1.35727968       0.00000000
Si       1.35681854       1.35814617      -1.35710785       0.00000000
Si      -1.35811499      -1.35801585      -1.35666108       0.00000000
Si      -0.00131297      -2.71160082      -2.71088213       0.00000000
Si      -0.00171859      -2.71451673       2.71425007       0.00000000
Si       0.00001140       2.71477737       2.71438754       0.00000000
Si       2.71470407      -0.00060273       2.71479994       0.00000000
Si       0.00064183       2.71344159      -2.71627771       0.00000000
Si       2.71520906      -2.71454931       0.00030930       0.00000000
