10
Lattice="16.28999089631971 0.0 0.0 0.0 16.28999089631971 0.0 0.0 0.0 34.36671206372826" Properties=species:S:1:pos:R:3:initial_magmoms:R:1 pbc="T T T"
Si      -1.84704165      -1.02491793       1.01281403       0.00000000
Si       1.14236883       1.85104899       0.96709597       0.00000000
Si      -0.76159008       0.26305092      -2.24198833       0.00000000
Si       1.78176762      -1.74635316      -0.08090066       0.00000000
Si       1.02732885      -1.42263828      -2.29219812       0.00000000
Si      -0.37481661      -2.23516719       2.44865950       0.00000000
Si       2.37708567       0.48231432       2.43615689       0.00000000
Si       0.90365517      -3.60522135       1.04689208       0.00000000
Si       3.69226438      -0.97267590       1.01073828       0.00000000
Si      -3.08811159       0.47447883       2.41860236       0.00000000
