10
Lattice="16.28999089631971 0.0 0.0 0.0 16.28999089631971 0.0 0.0 0.0 34.36671206372826" Properties=species:S:1:pos:R:3:initial_magmoms:R:1 pbc="T T T"
Si      -1.33911945      -1.35879777       1.34181466       0.00000000
Si      -1.35335691       1.35047358      -1.36119749       0.00000000
Si       1.36171368      -1.36368477      -1.35947916       0.00000000
Si       1.36342413       1.35558864       1.39157768       0.00000000
Si       2.47772529      -0.27121221       2.81587249       0.00000000
Si       0.01482390      -2.65289166       2.74225895       0.00000000
Si      -2.70899442       2.71181259       0.00450204       0.00000000
Si       0.00379557       2.71068858      -2.71703377       0.00000000
Si      -2.71142163      -0.00436572      -2.71754928       0.00000000
Si       2.72102574       2.71262709      -0.00068733       0.00000000
