10
Lattice="16.28999089631971 0.0 0.0 0.0 16.28999089631971 0.0 0.0 0.0 34.36671206372826" Properties=species:S:1:pos:R:3:initial_magmoms:R:1 pbc="T T T"
Si       1.23471684      -1.36873467       1.46906091       0.00000000
Si      -1.14236883      -1.85104899      -0.96709597       0.00000000
Si       1.39915692       1.20435228      -1.63608464       0.00000000
Si      -1.50200316       1.33318989       1.45306664       0.00000000
Si      -0.50453388       2.19916629      -2.70251868       0.00000000
Si       2.50816383       2.67281433      -0.07645567       0.00000000
Si       0.63939879      -3.59740215      -1.04799663       0.00000000
Si       2.54989555      -2.82372489       0.04364231       0.00000000
Si       2.57172415      -0.01342296       2.83322082       0.00000000
Si      -0.14387328       2.70681156       2.83401125       0.00000000
