10
Lattice="16.28999089631971 0.0 0.0 0.0 16.28999089631971 0.0 0.0 0.0 34.36671206372826" Properties=species:S:1:pos:R:3:initial_magmoms:R:1 pbc="T T T"
Si       1.31424462      -1.25820702       1.43512033       0.00000000
Si       1.38451033       1.32436071      -1.36683364       0.00000000
Si      -1.33046946      -1.38984651      -1.36944551       0.00000000
Si      -1.48159179       1.32501457       1.62389679       0.00000000
Si      -0.21854664      -2.19848211       3.02849946       0.00000000
Si      -2.68587891       2.67554195       0.01051622       0.00000000
Si      -2.23236531      -0.59847831       3.01179723       0.00000000
Si       0.02972925       2.68117177      -2.72655336       0.00000000
Si      -2.68286526      -0.03173292      -2.72538489       0.00000000
Si      -2.68244172      -2.74413195       0.01941720       0.00000000
