10
Lattice="16.28999089631971 0.0 0.0 0.0 16.28999089631971 0.0 0.0 0.0 34.36671206372826" Properties=species:S:1:pos:R:3:initial_magmoms:R:1 pbc="T T T"
Si      -0.29968713      -0.22879305       2.29002714       0.00000000
Si      -2.20496553      -0.64931940      -0.58148509       0.00000000
Si       0.66626819       2.25197914       0.37353200       0.00000000
Si       1.50836833      -1.52524899      -1.08753521       0.00000000
Si      -2.83678947       1.17118584      -1.87501449       0.00000000
Si       1.85027914       0.07387515       3.11895270       0.00000000
Si      -1.31261562       3.23766586       1.31995741       0.00000000
Si       2.60282339       1.99846878       1.83628319       0.00000000
Si      -1.00590750      -2.40601671       2.74844497       0.00000000
Si      -1.74646719       1.56361194       3.01454657       0.00000000
