10
Lattice="16.28999089631971 0.0 0.0 0.0 16.28999089631971 0.0 0.0 0.0 34.36671206372826" Properties=species:S:1:pos:R:3:initial_magmoms:R:1 pbc="T T T"
Si      -1.33605644      -1.35536058      -1.37996173       0.00000000
Si       1.37884913       1.35658233      -1.37948059       0.00000000
Si       1.28285216      -1.46606742       1.36951424       0.00000000
Si      -1.41039702       1.48963905       1.42168294       0.00000000
Si       2.47881509      -0.04422735       2.87054996       0.00000000
Si      -2.69365806      -2.71239903       0.01230329       0.00000000
Si      -2.69675316      -0.00110772      -2.73892538       0.00000000
Si       2.74110038       2.70195714      -0.01577433       0.00000000
Si       2.73790754      -2.70927135      -0.02673732       0.00000000
Si       0.01913261       2.71417464      -2.73878792       0.00000000
