10
Lattice="16.28999089631971 0.0 0.0 0.0 16.28999089631971 0.0 0.0 0.0 34.36671206372826" Properties=species:S:1:pos:R:3:initial_magmoms:R:1 pbc="T T T"
Si       1.08492345       0.68703075       2.03162369       0.00000000
Si      -1.13417759       1.64007720      -1.38930948       0.00000000
Si       1.18663821      -1.28658420      -1.71335339       0.00000000
Si      -1.16739290      -2.38106043       0.65564850       0.00000000
Si      -2.64093743      -0.71868222       1.73452329       0.00000000
Si       3.10880445       0.24509934      -0.96474288       0.00000000
Si      -0.90207767      -2.71850778      -1.70661751       0.00000000
Si       1.08344757      -3.03573924       1.35971972       0.00000000
Si       0.02488346       0.52893630      -3.47004322       0.00000000
Si      -3.18710855       0.39816018      -1.64723180       0.00000000
