10
Lattice="16.28999089631971 0.0 0.0 0.0 16.28999089631971 0.0 0.0 0.0 34.36671206372826" Properties=species:S:1:pos:R:3:initial_magmoms:R:1 pbc="T T T"
Si      -1.90369080       0.99481401      -1.06643404       0.00000000
Si       1.10900691       1.46846205       1.55962898       0.00000000
Si      -1.39915692      -1.20435228       1.63608464       0.00000000
Si       1.25677676      -0.81243117      -2.18998558       0.00000000
Si      -3.04907328       2.48160231       0.47698484       0.00000000
Si       1.98210041       3.40571772       0.48401833       0.00000000
Si       2.52701720       0.12981501       3.06988873       0.00000000
Si      -1.46260647       3.23804475      -1.82312073       0.00000000
Si      -2.54152575      -3.05540127       0.66898867       0.00000000
Si      -0.16444008      -2.57308695       3.10514556       0.00000000
