10
Lattice="10.86 0.0 0.0 0.0 10.86 0.0 0.0 0.0 10.86" Properties=species:S:1:pos:R:3:initial_magmoms:R:1 pbc="T T T"
Si       1.21918704       1.47113904      -1.24131972       0.00000000
Si       1.21918704      -1.24386096       1.47368028       0.00000000
Si      -1.49581296      -1.24386096      -1.24131972       0.00000000
Si       2.57668704       0.11363904      -2.59881972       0.00000000
Si       2.57668704      -2.60136096       0.11618028       0.00000000
Si      -0.13831296      -2.60136096      -2.59881972       0.00000000
Si       2.57668704       2.82863904       0.11618028       0.00000000
Si       2.57668704       0.11363904       2.83118028       0.00000000
Si      -0.13831296       2.82863904      -2.59881972       0.00000000
Si      -0.13831296      -2.60136096       2.83118028       0.00000000
