10
Lattice="10.86 0.0 0.0 0.0 10.86 0.0 0.0 0.0 10.86" Properties=species:S:1:pos:R:3:initial_magmoms:R:1 pbc="T T T"
Si       1.24106994      -1.38066438       1.22887416       0.00000000
Si      -1.47393006       1.33433562       1.22887416       0.00000000
Si       1.24106994       1.33433562      -1.48612584       0.00000000
Si       2.59856994      -0.02316438       2.58637416       0.00000000
Si      -0.11643006       2.69183562       2.58637416       0.00000000
Si       2.59856994       2.69183562      -0.12862584       0.00000000
Si      -0.11643006      -2.73816438       2.58637416       0.00000000
Si       2.59856994      -2.73816438      -0.12862584       0.00000000
Si      -2.78768598      -2.62183206      -0.20423316       0.00000000
Si      -2.83143006      -0.02316438       2.58637416       0.00000000
