10
Lattice="10.86 0.0 0.0 0.0 10.86 0.0 0.0 0.0 10.86" Properties=species:S:1:pos:R:3:initial_magmoms:R:1 pbc="T T T"
Si       1.36474362      -1.36857720      -1.22158710       0.00000000
Si       1.36474362       1.34642280       1.49341290       0.00000000
Si      -1.35025638      -1.36857720       1.49341290       0.00000000
Si       0.00019548       2.65442292      -2.49569316       0.00000000
Si      -2.66372994       0.01016496      -2.60660634       0.00000000
Si       2.72224362      -0.01107720      -2.57908710       0.00000000
Si       0.00724362      -2.72607720      -2.57908710       0.00000000
Si       2.72224362       2.70392280       0.13591290       0.00000000
Si      -2.70775638      -2.72607720       0.13591290       0.00000000
Si       2.72224362      -2.72607720       0.13591290       0.00000000
