10
Lattice="10.86 0.0 0.0 0.0 10.86 0.0 0.0 0.0 10.86" Properties=species:S:1:pos:R:3:initial_magmoms:R:1 pbc="T T T"
Si       1.31347356      -1.37874216      -1.32998076       0.00000000
Si      -1.40152644       1.33625784      -1.32998076       0.00000000
Si      -1.40152644      -1.37874216       1.38501924       0.00000000
Si      -2.65625826       2.53592946       0.16612542       0.00000000
Si       2.66372994      -0.01016496       2.60660634       0.00000000
Si       2.66392542       2.64425796       0.11091318       0.00000000
Si       2.67097356      -0.02124216      -2.68748076       0.00000000
Si      -0.04402644       2.69375784      -2.68748076       0.00000000
Si       2.67097356      -2.73624216       0.02751924       0.00000000
Si      -0.04402644      -2.73624216      -2.68748076       0.00000000
