10
Lattice="10.86 0.0 0.0 0.0 10.86 0.0 0.0 0.0 10.86" Properties=species:S:1:pos:R:3:initial_magmoms:R:1 pbc="T T T"
Si      -1.23462996       1.30025694      -1.37578824       0.00000000
Si      -1.23462996      -1.41474306       1.33921176       0.00000000
Si       1.48037004       1.30025694       1.33921176       0.00000000
Si      -2.59212996       2.65775694      -0.01828824       0.00000000
Si      -2.59212996      -0.05724306       2.69671176       0.00000000
Si       0.12287004       2.65775694       2.69671176       0.00000000
Si      -2.70272820      -2.66286114       0.11169510       0.00000000
Si       2.84132352      -0.02280600      -2.53584258       0.00000000
Si       0.12287004       2.65775694      -2.73328824       0.00000000
Si      -2.35008228      -0.19369896      -3.03960540       0.00000000
