10
Lattice="16.28999089631971 0.0 0.0 0.0 16.28999089631971 0.0 0.0 0.0 34.433804113860816" Properties=species:S:1:pos:R:3:initial_magmoms:R:1 pbc="T T T"
Si       1.82381537      -0.01207089      -1.46484928       0.00000000
Si      -1.28878728       1.96864650       0.24565090       0.00000000
Si       0.89444155      -0.36898479       2.16778135       0.00000000
Si      -1.49855361      -1.72175526      -0.80144724       0.00000000
Si       0.19720837      -3.36825072      -0.68034348       0.00000000
Si       2.20773809      -2.34075897      -1.28066276       0.00000000
Si       0.56297751       0.76105251      -3.37382601       0.00000000
Si      -1.10845698      -0.10427229       3.45801671       0.00000000
Si      -3.35175288      -1.43055522       0.69728492       0.00000000
Si      -2.28900957       1.76217075       2.45423633       0.00000000
