10
Lattice="16.28999089631971 0.0 0.0 0.0 16.28999089631971 0.0 0.0 0.0 34.433804113860816" Properties=species:S:1:pos:R:3:initial_magmoms:R:1 pbc="T T T"
Si      -0.99038313       0.65557476      -2.03135454       0.00000000
Si      -0.79369767      -2.26499418      -0.24052026       0.00000000
Si       2.37301317      -0.38419965       0.28659271       0.00000000
Si      -0.69196662       1.56506175       1.75147643       0.00000000
Si      -3.18534660      -0.05730822      -1.32721729       0.00000000
Si      -1.16965458       0.04613328       3.48397981       0.00000000
Si       1.02338667      -3.32021151      -1.29161271       0.00000000
Si      -0.79096095       2.99011095      -2.16361486       0.00000000
Si       1.20718674       2.91450906       2.17146577       0.00000000
Si       2.79231777      -0.43950420       2.63515163       0.00000000
