10
Lattice="16.28999089631971 0.0 0.0 0.0 16.28999089631971 0.0 0.0 0.0 34.433804113860816" Properties=species:S:1:pos:R:3:initial_magmoms:R:1 pbc="T T T"
Si      -1.42400584       1.24840044      -1.40448679       0.00000000
Si      -1.79988130      -0.75163689       1.35948178       0.00000000
Si       1.26741559      -1.48531731      -1.39167740       0.00000000
Si       1.88507049       0.71832384       1.41519571       0.00000000
Si       0.77038815      -2.31642985       2.77078646       0.00000000
Si       2.69593782       2.65580757       0.11917546       0.00000000
Si      -0.07258971       2.59131546      -2.76031858       0.00000000
Si      -2.91266749       2.45480526      -0.03773947       0.00000000
Si       2.64081246      -0.12412980      -2.74967853       0.00000000
Si      -0.95864941      -0.98282457       3.58996712       0.00000000
