10
Lattice="16.28999089631971 0.0 0.0 0.0 16.28999089631971 0.0 0.0 0.0 34.433804113860816" Properties=species:S:1:pos:R:3:initial_magmoms:R:1 pbc="T T T"
Si      -1.88507049      -0.71832384      -1.41519571       0.00000000
Si       0.81086733       1.93748373      -1.29602024       0.00000000
Si       1.71794340      -1.87965423      -0.09730998       0.00000000
Si      -1.11468235      -3.03475370       1.35559076       0.00000000
Si       2.13021072       0.52815438      -2.78318264       0.00000000
Si      -0.61765490      -2.20364115      -2.80687311       0.00000000
Si       1.77943815      -0.25945083       3.25802506       0.00000000
Si      -0.90455275       1.93699503       3.21153940       0.00000000
Si       3.51474669      -0.88555698      -1.35366246       0.00000000
Si       0.68191569      -3.58320446      -1.39463871       0.00000000
