10
Lattice="16.28999089631971 0.0 0.0 0.0 16.28999089631971 0.0 0.0 0.0 34.433804113860816" Properties=species:S:1:pos:R:3:initial_magmoms:R:1 pbc="T T T"
Si       1.35573525       1.35545832       1.35924074       0.00000000
Si      -1.35931905      -1.35972630       1.35924074       0.00000000
Si      -1.36440153       1.36062225      -1.35672707       0.00000000
Si       1.35780408      -1.36853919      -1.35710585       0.00000000
Si       2.71309950       2.71189404       0.00148065       0.00000000
Si       2.71326240      -0.00229689       2.71631216       0.00000000
Si       2.71376739      -2.71624347       0.00320235       0.00000000
Si      -2.71736748       2.71301805       0.00244480       0.00000000
Si      -0.00254124       2.71345788       2.71693196       0.00000000
Si      -0.00286704      -2.71733490       2.71600225       0.00000000
