10
Lattice="16.28999089631971 0.0 0.0 0.0 16.28999089631971 0.0 0.0 0.0 34.433804113860816" Properties=species:S:1:pos:R:3:initial_magmoms:R:1 pbc="T T T"
Si      -1.35736425      -1.35643572       1.35776009       0.00000000
Si      -1.35552348       1.35809730      -1.35944735       0.00000000
Si       1.35749457       1.35822762       1.35769122       0.00000000
Si       1.36172997      -1.35684297      -1.35793226       0.00000000
Si      -2.71309950      -2.71189404      -0.00148065       0.00000000
Si       2.71371852      -2.71432125      -0.00068868       0.00000000
Si       0.00016290      -2.71419093       2.71483150       0.00000000
Si       2.71454931       0.00140094       2.71514141       0.00000000
Si       2.71453302       2.71622718       0.00020660       0.00000000
Si      -2.71564074       0.00156384       2.71545131       0.00000000
