10
Lattice="16.28999089631971 0.0 0.0 0.0 16.28999089631971 0.0 0.0 0.0 34.433804113860816" Properties=species:S:1:pos:R:3:initial_magmoms:R:1 pbc="T T T"
Si       1.35552348      -1.35809730       1.35944735       0.00000000
Si      -1.36210464       1.35736425       1.35958508       0.00000000
Si       1.35681039       1.34592867      -1.37830675       0.00000000
Si      -1.37370312      -1.34807895      -1.36023932       0.00000000
Si      -0.12085551       2.65455324      -2.70761073       0.00000000
Si       2.71308321       2.71627605      -0.00154952       0.00000000
Si       2.71301805       0.00013032       2.71713857       0.00000000
Si      -2.72370429       0.10836108      -2.70485602       0.00000000
Si      -2.72197755      -2.70936909       0.00123962       0.00000000
Si      -0.00184077      -2.71453302       2.71720743       0.00000000
