10
Lattice="16.28999089631971 0.0 0.0 0.0 16.28999089631971 0.0 0.0 0.0 34.433804113860816" Properties=species:S:1:pos:R:3:initial_magmoms:R:1 pbc="T T T"
Si      -0.45313893      -1.25571465       1.99065376       0.00000000
Si      -1.25279874      -1.07396712      -1.87378537       0.00000000
Si      -0.22408524       2.37342042       0.74693850       0.00000000
Si       1.63188333       1.43925408      -1.74665569       0.00000000
Si       0.65414124      -0.39408768      -3.11044170       0.00000000
Si      -2.26136151       0.22498119       2.59403765       0.00000000
Si       3.06279693       1.68552630       0.31128176       0.00000000
Si      -0.17725149       3.17462778      -1.49156993       0.00000000
Si      -2.51028900       2.15966304       1.21441208       0.00000000
Si       1.70799021      -1.04205501       2.94736311       0.00000000
