10
Lattice="16.28999089631971 0.0 0.0 0.0 16.28999089631971 0.0 0.0 0.0 34.433804113860816" Properties=species:S:1:pos:R:3:initial_magmoms:R:1 pbc="T T T"
Si      -0.04683375      -0.80120736       2.23850842       0.00000000
Si       0.72135378       2.27186856       0.33927646       0.00000000
Si       1.80913482      -1.73537370      -0.25508576       0.00000000
Si      -1.74669525      -0.85929750      -1.63443586       0.00000000
Si       1.33133283       2.37737889      -1.87919148       0.00000000
Si       0.17725149      -3.17462778       1.49156993       0.00000000
Si      -2.33303751      -1.01496474       2.70598201       0.00000000
Si       2.21056929       0.45999702      -3.05114665       0.00000000
Si      -0.50919282      -2.27076084      -3.06113246       0.00000000
Si       3.24004842      -1.48910148       1.80285169       0.00000000
