10
Lattice="16.28999089631971 0.0 0.0 0.0 16.28999089631971 0.0 0.0 0.0 34.433804113860816" Properties=species:S:1:pos:R:3:initial_magmoms:R:1 pbc="T T T"
Si       1.85557761      -0.79565247       1.18128674       0.00000000
Si       1.35418770       1.34902377      -1.36654071       0.00000000
Si      -1.35078309      -1.38031686      -1.35975725       0.00000000
Si      -1.42726464       1.31377221       1.41602212       0.00000000
Si       1.24559856      -0.90116280       3.39975468       0.00000000
Si       2.71132389       2.68310376      -0.00048207       0.00000000
Si       0.00640197       2.69600870      -2.72030648       0.00000000
Si      -2.72683523       2.69333551       0.00378772       0.00000000
Si      -2.70975028      -0.01487277      -2.71741404       0.00000000
Si      -2.69334136      -2.73831642       0.00919383       0.00000000
