10
Lattice="16.28999089631971 0.0 0.0 0.0 16.28999089631971 0.0 0.0 0.0 34.433804113860816" Properties=species:S:1:pos:R:3:initial_magmoms:R:1 pbc="T T T"
Si       0.45680418      -2.21664546      -0.46423681       0.00000000
Si       1.69932393       1.56529863       0.31307232       0.00000000
Si      -1.14777711       0.91484007      -1.84623831       0.00000000
Si      -1.22530122       0.08830809       2.10414764       0.00000000
Si       0.38726217       3.39270920       1.10177905       0.00000000
Si      -3.09261577       1.65421433      -0.76084976       0.00000000
Si       2.16112914      -2.69433342       1.17298819       0.00000000
Si      -1.73431485      -3.15806085      -0.63599272       0.00000000
Si      -3.40538052       0.63557064       1.37277324       0.00000000
Si      -0.77198310       2.32205872       2.86678796       0.00000000
