10
Lattice="16.28999089631971 0.0 0.0 0.0 16.28999089631971 0.0 0.0 0.0 34.433804113860816" Properties=species:S:1:pos:R:3:initial_magmoms:R:1 pbc="T T T"
Si       0.46514466      -0.72270585      -2.29408461       0.00000000
Si       0.65546073       2.36551977       0.47973203       0.00000000
Si       1.52759475      -1.57657878       1.22312384       0.00000000
Si      -2.57624721       0.06058251       0.07079594       0.00000000
Si      -2.92128570       2.05993566      -1.36292516       0.00000000
Si       0.26823114      -3.64128741       1.47242472       0.00000000
Si       1.63833417       3.29352427      -1.48110204       0.00000000
Si       2.50064532       0.26327898      -3.21271015       0.00000000
Si      -1.23918030      -0.24501789      -3.93130961       0.00000000
Si       0.68545062      -3.07226142      -2.71861922       0.00000000
