10
Lattice="16.28999089631971 0.0 0.0 0.0 16.28999089631971 0.0 0.0 0.0 34.433804113860816" Properties=species:S:1:pos:R:3:initial_magmoms:R:1 pbc="T T T"
Si       1.35718506       1.35671951       1.35720915       0.00000000
Si      -1.35798327      -1.35805202       1.35610727       0.00000000
Si      -1.36231641       1.35714142      -1.35641717       0.00000000
Si       1.35646830      -1.35751445      -1.36320063       0.00000000
Si      -0.00037467       2.71367325       2.71390179       0.00000000
Si       2.71417464       2.71432485      -0.00030990       0.00000000
Si      -2.71441899       2.71439001       0.00089528       0.00000000
Si       2.71450044      -0.00138608       2.71438386       0.00000000
Si      -2.71523349      -0.00103205       2.71414282       0.00000000
Si      -0.00030951      -2.71698011       2.71359188       0.00000000
