10
Lattice="16.28999089631971 0.0 0.0 0.0 16.28999089631971 0.0 0.0 0.0 34.433804113860816" Properties=species:S:1:pos:R:3:initial_magmoms:R:1 pbc="T T T"
Si      -1.24857963      -1.97940930      -0.15471117       0.00000000
Si      -0.39767148       2.27059794      -0.60841122       0.00000000
Si       1.06065819       0.07131762      -2.13679091       0.00000000
Si       0.96317883      -0.69853149       2.16891767       0.00000000
Si       1.86072525       2.79834507      -0.26221356       0.00000000
Si      -0.77020749      -0.77924844      -3.48088077       0.00000000
Si       0.43753311      -3.64847849       0.36196835       0.00000000
Si       2.25025173      -2.61229535       1.53919190       0.00000000
Si      -2.54275497      -1.79725615      -2.14505503       0.00000000
Si       3.01423644      -1.31103549      -2.03190548       0.00000000
