10
Lattice="16.28999089631971 0.0 0.0 0.0 16.28999089631971 0.0 0.0 0.0 34.433804113860816" Properties=species:S:1:pos:R:3:initial_magmoms:R:1 pbc="T T T"
Si      -1.84376736      -1.41749783      -0.43596664       0.00000000
Si       1.71277947      -1.53159299       0.61512582       0.00000000
Si      -0.42565770       1.40875920       1.87946695       0.00000000
Si       1.09059921       0.99843528      -1.93938180       0.00000000
Si       2.77671195      -0.67063391      -1.42270228       0.00000000
Si       1.83273903       2.06980740       2.22191132       0.00000000
Si      -3.59515413       0.12978895      -0.26916920       0.00000000
Si       0.66661938      -3.61298258       0.05991485       0.00000000
Si      -1.56600657      -3.34323647       0.93098728       0.00000000
Si      -1.62261432      -2.42731493      -2.55354347       0.00000000
