10
Lattice="16.28999089631971 0.0 0.0 0.0 16.28999089631971 0.0 0.0 0.0 34.433804113860816" Properties=species:S:1:pos:R:3:initial_magmoms:R:1 pbc="T T T"
Si      -1.35378045       1.35578412      -1.35758792       0.00000000
Si      -1.35723393      -1.33915203       1.37108598       0.00000000
Si       1.36523232       1.34915409       1.35603840       0.00000000
Si       1.36216980      -1.35698958      -1.35627943       0.00000000
Si       2.59499700      -0.13786227       2.71958337       0.00000000
Si      -2.70772380      -2.71533123       0.00544054       0.00000000
Si      -2.70918990       2.71505430       0.00199716       0.00000000
Si      -2.71078632      -0.00169416      -2.71424613       0.00000000
Si       0.00360009       2.71389771      -2.71393622       0.00000000
Si       0.00376299      -2.71635750      -2.71434943       0.00000000
