10
Lattice="16.28999089631971 0.0 0.0 0.0 16.28999089631971 0.0 0.0 0.0 34.433804113860816" Properties=species:S:1:pos:R:3:initial_magmoms:R:1 pbc="T T T"
Si      -0.41453163      -0.93765240      -2.05983131       0.00000000
Si      -1.44938646       1.87346403       0.21348970       0.00000000
Si       1.96740846       1.35391077       0.25536123       0.00000000
Si      -1.57692087      -1.80851580       0.28428565       0.00000000
Si       0.49598163       3.18985893       0.51709273       0.00000000
Si      -1.15761627      -1.86382035       2.63284457       0.00000000
Si       2.65064364       1.20381471      -1.93886529       0.00000000
Si      -1.24678773       0.82142325      -3.31305031       0.00000000
Si      -1.18467396       0.32135283       3.53955600       0.00000000
Si      -2.50276302       2.14428528      -1.86813822       0.00000000
