10
Lattice="16.28999089631971 0.0 0.0 0.0 16.28999089631971 0.0 0.0 0.0 34.433804113860816" Properties=species:S:1:pos:R:3:initial_magmoms:R:1 pbc="T T T"
Si       1.46106639      -1.24538679       1.48778221       0.00000000
Si      -1.23660648       1.46922768       1.49350166       0.00000000
Si       1.88502993       1.06080480      -1.23368267       0.00000000
Si      -1.90229733      -1.02840399      -1.41132676       0.00000000
Si       2.87883396      -2.46312945      -0.02386264       0.00000000
Si      -2.69842221      -2.66176971       0.17566415       0.00000000
Si       0.12383658      -2.59164126       2.87332350       0.00000000
Si      -2.59341687       0.12329901       2.87180842       0.00000000
Si      -2.71427238       2.77785225       0.16419769       0.00000000
Si       1.04431932       1.69205859      -3.41578849       0.00000000
