10
Lattice="16.28999089631971 0.0 0.0 0.0 16.28999089631971 0.0 0.0 0.0 34.433804113860816" Properties=species:S:1:pos:R:3:initial_magmoms:R:1 pbc="T T T"
Si       1.32792822      -1.36611198      -1.38303452       0.00000000
Si      -1.37122704       1.38816864      -1.36805580       0.00000000
Si       1.83391191       0.93752208       1.24523035       0.00000000
Si      -1.77266151      -0.80720208       1.42800509       0.00000000
Si      -0.34174791      -0.56092986       3.48594254       0.00000000
Si       0.75927690       1.58060241       3.21195261       0.00000000
Si      -2.75040360      -2.64054384       0.06421908       0.00000000
Si       2.68351686       0.01158219      -2.73321916       0.00000000
Si       2.75675670      -2.66017329      -0.02740932       0.00000000
Si      -0.02715543      -2.70241326      -2.73724792       0.00000000
