10
Lattice="16.28999089631971 0.0 0.0 0.0 16.28999089631971 0.0 0.0 0.0 34.433804113860816" Properties=species:S:1:pos:R:3:initial_magmoms:R:1 pbc="T T T"
Si       2.01489381      -0.43992774      -1.22797901       0.00000000
Si      -1.44420461      -1.85145624      -0.59446553       0.00000000
Si       0.05590728      -1.41597567       2.08122405       0.00000000
Si      -0.24803154       2.45781891      -0.72844753       0.00000000
Si      -2.50400106       1.85622921      -1.14172228       0.00000000
Si       2.50639569       1.47046572       1.84300153       0.00000000
Si       0.45278055      -3.43722910      -0.56956987       0.00000000
Si       1.12878297       0.28880541       3.38868562       0.00000000
Si       3.59852616       0.05269815       0.32991046       0.00000000
Si      -1.66749653      -1.37643984      -2.93176459       0.00000000
