10
Lattice="16.28999089631971 0.0 0.0 0.0 16.28999089631971 0.0 0.0 0.0 34.433804113860816" Properties=species:S:1:pos:R:3:initial_magmoms:R:1 pbc="T T T"
Si       0.12873987      -0.80881479      -2.18413742       0.00000000
Si       0.07739379      -2.12688756       1.09771585       0.00000000
Si       2.26869201       0.62130060       0.54946052       0.00000000
Si      -2.33285832       0.79490313       0.58540943       0.00000000
Si       0.74881872      -0.10937106       2.50733328       0.00000000
Si      -1.01463894       1.62070839       2.49552248       0.00000000
Si      -1.95857928      -2.78875026       0.06535540       0.00000000
Si      -1.70940744      -2.23660071      -2.25544986       0.00000000
Si       2.55782322       2.54456316      -0.81033117       0.00000000
Si       0.28541709       0.93691935      -3.71007230       0.00000000
