10
Lattice="16.28999089631971 0.0 0.0 0.0 16.28999089631971 0.0 0.0 0.0 34.433804113860816" Properties=species:S:1:pos:R:3:initial_magmoms:R:1 pbc="T T T"
Si       1.35798327       1.35805202      -1.35610727       0.00000000
Si      -1.35744570      -1.35770634      -1.35700254       0.00000000
Si      -1.35725022       1.35701997       1.35803556       0.00000000
Si       1.35767376      -1.35892809       1.35748462       0.00000000
Si      -0.00061902      -2.71376739       2.71242113       0.00000000
Si      -0.00433314       2.71519344      -2.71252443       0.00000000
Si      -2.71430496       2.71406780      -0.00034434       0.00000000
Si       2.71516833       2.71477152       0.00110188       0.00000000
Si       0.00017919       2.71323375       2.71689753       0.00000000
Si       2.71487511      -0.00250866       2.71527914       0.00000000
