10
Lattice="16.28999089631971 0.0 0.0 0.0 16.28999089631971 0.0 0.0 0.0 34.433804113860816" Properties=species:S:1:pos:R:3:initial_magmoms:R:1 pbc="T T T"
Si       1.32655986       1.34864910      -1.37573454       0.00000000
Si      -1.38567627      -1.36707309      -1.36867561       0.00000000
Si      -1.18848582       1.41094206       1.50823590       0.00000000
Si       1.44247950      -1.32131448       1.40741366       0.00000000
Si      -0.43020261      -2.19594087       2.62099933       0.00000000
Si      -2.23528122      -0.44113320       2.60977391       0.00000000
Si       2.68447797       2.70852201       0.01986832       0.00000000
Si       2.68325622      -2.72733696      -0.01652824       0.00000000
Si       2.68934868      -0.00788436      -2.73043002       0.00000000
Si      -2.72662020       2.69384472       0.01150090       0.00000000
