10
Lattice="16.28999089631971 0.0 0.0 0.0 16.28999089631971 0.0 0.0 0.0 34.433804113860816" Properties=species:S:1:pos:R:3:initial_magmoms:R:1 pbc="T T T"
Si      -1.96903746       0.74070630       1.01920674       0.00000000
Si       1.24206919       1.95955668      -0.50993049       0.00000000
Si      -0.69709797      -1.67858676      -1.54669848       0.00000000
Si       0.98253854      -1.24134687       1.83263695       0.00000000
Si      -2.30231457      -2.74865894      -0.20608643       0.00000000
Si       2.90988989      -1.98967689       0.77951289       0.00000000
Si       0.87051384       0.35561070       3.53735224       0.00000000
Si      -1.45556037       0.82147212       3.28663957       0.00000000
Si      -3.58938747      -0.83489508       0.42363933       0.00000000
Si      -2.25005625       2.98835163       0.24713155       0.00000000
