10
Lattice="16.28999089631971 0.0 0.0 0.0 16.28999089631971 0.0 0.0 0.0 34.433804113860816" Properties=species:S:1:pos:R:3:initial_magmoms:R:1 pbc="T T T"
Si       1.35141613       1.34291502      -1.35583179       0.00000000
Si      -1.48866165       1.20640482       1.36674732       0.00000000
Si       1.42400584      -1.24840044       1.40448679       0.00000000
Si      -1.36205577      -1.37370312      -1.34808418       0.00000000
Si      -0.37587546      -2.00003733       2.76396857       0.00000000
Si      -2.32945371      -0.61768422       2.65908314       0.00000000
Si      -0.17285319       2.61281826       2.75040164       0.00000000
Si       2.70481671       2.67454107       0.01604616       0.00000000
Si      -0.00493587       2.69988831      -2.71004520       0.00000000
Si      -2.71842633       2.69342118       0.00320235       0.00000000
