10
Lattice="16.28999089631971 0.0 0.0 0.0 16.28999089631971 0.0 0.0 0.0 34.433804113860816" Properties=species:S:1:pos:R:3:initial_magmoms:R:1 pbc="T T T"
Si      -0.48840678       0.72990603       2.23661456       0.00000000
Si       1.04094729      -2.24099901       0.34829812       0.00000000
Si       2.22664752      -0.25508511      -1.14186002       0.00000000
Si      -1.82143377      -0.16627203      -1.74772314       0.00000000
Si      -2.35473579      -2.35121715      -0.74173899       0.00000000
Si       1.57178952       0.38110455      -3.29555793       0.00000000
Si       0.45804222       2.54988999      -2.62292763       0.00000000
Si      -0.27997623      -3.46454091      -1.26929960       0.00000000
Si      -1.34363178      -1.11606048       3.54822097       0.00000000
Si       3.22456382      -2.35761912      -0.80730099       0.00000000
