10
Lattice="16.28999089631971 0.0 0.0 0.0 16.28999089631971 0.0 0.0 0.0 34.433804113860816" Properties=species:S:1:pos:R:3:initial_magmoms:R:1 pbc="T T T"
Si       1.35471969       1.35773892       1.35734688       0.00000000
Si      -1.35765231       1.35742941      -1.35765679       0.00000000
Si       1.35782294      -1.35802400      -1.35800113       0.00000000
Si      -1.35871116      -1.35987454       1.35700254       0.00000000
Si       0.00111061       2.71510317       2.71080274       0.00000000
Si       2.71537615      -2.71421155      -0.00055094       0.00000000
Si       2.71464310       2.71518462       0.00010330       0.00000000
Si       2.71456165       0.00016290      -2.71541688       0.00000000
Si      -2.71503285       2.71497285      -0.00051651       0.00000000
Si      -0.00022910      -2.71442380       2.71583008       0.00000000
