10
Lattice="16.28999089631971 0.0 0.0 0.0 16.28999089631971 0.0 0.0 0.0 34.433804113860816" Properties=species:S:1:pos:R:3:initial_magmoms:R:1 pbc="T T T"
Si       1.35062019       1.35705215       1.38512120       0.00000000
Si      -1.36598166      -1.35710361       1.38298631       0.00000000
Si      -1.38875508       1.44329141      -1.32556791       0.00000000
Si       1.24581033      -1.43153262      -1.56399459       0.00000000
Si       2.68317267      -2.70363501       0.01372877       0.00000000
Si       2.70028155       2.70753551      -0.00460725       0.00000000
Si      -2.72798856      -2.71666701       0.01972714       0.00000000
Si       2.70748723      -0.00191078       2.74594590       0.00000000
Si      -0.00827532       2.71473569       2.74587704       0.00000000
Si      -0.00635310      -2.71682991       2.74498176       0.00000000
