10
Lattice="16.28999089631971 0.0 0.0 0.0 16.28999089631971 0.0 0.0 0.0 34.433804113860816" Properties=species:S:1:pos:R:3:initial_magmoms:R:1 pbc="T T T"
Si       1.35759366       1.35487188      -1.35824216       0.00000000
Si      -1.36278882       1.35653346       1.35469548       0.00000000
Si      -1.35726651      -1.35982404      -1.35810443       0.00000000
Si       1.36296801      -1.36228383       1.36013602       0.00000000
Si      -2.68934868       0.00788436       2.73043002       0.00000000
Si      -2.71547784       2.71116099      -0.00113632       0.00000000
Si      -0.00024435       2.71300176      -2.71565791       0.00000000
Si       2.71509732      -0.00221544      -2.71534801       0.00000000
Si      -2.71500543      -0.00218286      -2.71576121       0.00000000
Si       2.71565770       2.71555929       0.00017217       0.00000000
