10
Lattice="16.28999089631971 0.0 0.0 0.0 16.28999089631971 0.0 0.0 0.0 34.433804113860816" Properties=species:S:1:pos:R:3:initial_magmoms:R:1 pbc="T T T"
Si      -0.51653961       1.16494677       1.99705845       0.00000000
Si       1.11167847       1.55564876      -1.55792390       0.00000000
Si       1.43244486      -1.51008300       1.35865537       0.00000000
Si      -1.44894663      -1.23623181      -1.63068257       0.00000000
Si       3.24171000       0.02982699       1.07189049       0.00000000
Si      -2.20265235       2.83401595       1.48037893       0.00000000
Si       2.42401716       0.06134814      -3.11905015       0.00000000
Si      -2.49574203      -3.08830707      -0.52914456       0.00000000
Si       2.72627811      -2.98362753      -0.16159793       0.00000000
Si       1.29617901       2.20112991       3.17428201       0.00000000
