10
Lattice="16.28999089631971 0.0 0.0 0.0 16.28999089631971 0.0 0.0 0.0 34.433804113860816" Properties=species:S:1:pos:R:3:initial_magmoms:R:1 pbc="T T T"
Si      -2.05366564       0.12957066      -1.11744644       0.00000000
Si       1.20842478       1.98221607      -0.59694476       0.00000000
Si      -0.59486193      -0.11709252       2.33116984       0.00000000
Si       0.63032526      -2.06687520      -1.07096077       0.00000000
Si      -0.59979780       3.46291191       0.00643912       0.00000000
Si      -2.90116918       2.22086457      -0.28480215       0.00000000
Si      -3.29573483      -1.82998602      -0.60751595       0.00000000
Si      -0.38584494      -3.81966291       0.17199695       0.00000000
Si       1.03420323      -1.39180131       3.46721054       0.00000000
Si      -2.31319629      -3.07133289       1.22512100       0.00000000
