10
Lattice="16.28999089631971 0.0 0.0 0.0 16.28999089631971 0.0 0.0 0.0 34.433804113860816" Properties=species:S:1:pos:R:3:initial_magmoms:R:1 pbc="T T T"
Si       1.43914561      -1.18498347      -1.40245519       0.00000000
Si       1.36792084       1.38306987       1.31709374       0.00000000
Si      -0.99553077      -1.50566841       1.57851533       0.00000000
Si      -1.29779172       1.53930726      -1.37893689       0.00000000
Si      -0.48009888       1.50778611       2.81200375       0.00000000
Si      -2.53979019      -2.49052923       0.00860846       0.00000000
Si       0.07004700      -2.53938294      -2.76909921       0.00000000
Si       2.91003650      -2.47899591       0.01439334       0.00000000
Si      -2.65570983       0.17943435      -2.77453975       0.00000000
Si      -2.28936402      -0.03212388       3.09876863       0.00000000
