10
Lattice="16.28999089631971 0.0 0.0 0.0 16.28999089631971 0.0 0.0 0.0 34.433804113860816" Properties=species:S:1:pos:R:3:initial_magmoms:R:1 pbc="T T T"
Si      -0.15921846      -0.84488085      -2.18227799       0.00000000
Si       2.32859034       0.41472711      -0.01136316       0.00000000
Si      -0.28913121      -1.92326256       1.35979168       0.00000000
Si      -1.72524132       1.58777001       0.39843377       0.00000000
Si       1.26584703      -2.77799886      -1.76831456       0.00000000
Si       2.42750322       2.49033375       1.15246563       0.00000000
Si       1.82718414      -3.14317179       0.53844170       0.00000000
Si      -2.55782322      -2.54456316       0.81033117       0.00000000
Si      -2.95332813       1.74718395      -1.65568153       0.00000000
Si      -2.53403982       1.12013298       2.63473843       0.00000000
