10
Lattice="16.28999089631971 0.0 0.0 0.0 16.28999089631971 0.0 0.0 0.0 34.433804113860816" Properties=species:S:1:pos:R:3:initial_magmoms:R:1 pbc="T T T"
Si      -0.10859728       2.14146711       0.93870046       0.00000000
Si       0.80416562       0.38586123      -2.18568694       0.00000000
Si       1.93773785      -0.82156986       1.10993986       0.00000000
Si      -2.09930600      -0.91676862       0.77018133       0.00000000
Si       0.19281333       1.55041704       3.15975093       0.00000000
Si       1.19377355      -0.59512257       3.34893036       0.00000000
Si       2.36916221       2.13947973      -1.74369438       0.00000000
Si      -1.20275327       0.91434141      -3.34765631       0.00000000
Si       0.13393475      -3.67354161      -0.23735234       0.00000000
Si       1.90193243       3.16895886       0.33838118       0.00000000
