10
Lattice="16.28999089631971 0.0 0.0 0.0 16.28999089631971 0.0 0.0 0.0 34.433804113860816" Properties=species:S:1:pos:R:3:initial_magmoms:R:1 pbc="T T T"
Si       1.34910848       1.36247931      -1.32543706       0.00000000
Si       1.35391403      -1.35861858       1.36089357       0.00000000
Si      -1.36002068       1.35703845       1.36030819       0.00000000
Si      -1.37795874      -1.36660068      -1.37644388       0.00000000
Si      -0.01459747       2.67077808      -2.66624882       0.00000000
Si       2.70515324       0.10671579      -2.70437395       0.00000000
Si       2.70687998      -2.71101438       0.00172169       0.00000000
Si       2.70961670       2.71599912       0.00537168       0.00000000
Si       2.71135973      -0.00089595       2.71765507       0.00000000
Si      -2.71846284       2.71091664       0.00285801       0.00000000
