10
Lattice="16.28999089631971 0.0 0.0 0.0 16.28999089631971 0.0 0.0 0.0 34.433804113860816" Properties=species:S:1:pos:R:3:initial_magmoms:R:1 pbc="T T T"
Si       0.80279889       1.71387090       1.39587778       0.00000000
Si      -1.89461564      -0.89254539       1.21751402       0.00000000
Si       1.69072281      -1.76238252       0.24834307       0.00000000
Si      -0.27157059       1.20063816      -2.25897441       0.00000000
Si       0.69962292      -1.01599101      -2.95935838       0.00000000
Si       2.16650484       0.40557213       2.73668954       0.00000000
Si      -0.56056238      -2.32350786       2.68568272       0.00000000
Si       2.45140065       2.68237656      -0.02115467       0.00000000
Si       2.69842221      -2.02979916      -1.81054273       0.00000000
Si       3.52254960      -0.85019139       1.35775265       0.00000000
