10
Lattice="16.28999089631971 0.0 0.0 0.0 16.28999089631971 0.0 0.0 0.0 34.433804113860816" Properties=species:S:1:pos:R:3:initial_magmoms:R:1 pbc="T T T"
Si      -1.00769940       0.26741664       2.05888580       0.00000000
Si      -0.44574327      -2.15515071      -0.96476686       0.00000000
Si       2.20595922       1.08359451       0.32054446       0.00000000
Si      -1.99879929       1.01380815      -1.14881565       0.00000000
Si       0.82412739       1.17960777       3.16829538       0.00000000
Si       0.61191756      -1.64947653      -3.00903409       0.00000000
Si      -1.07971749       1.48014198      -3.25193028       0.00000000
Si       1.09325448       0.67153896      -3.56090497       0.00000000
Si       1.63880658       2.92475547       1.80170029       0.00000000
Si       2.84452722       1.47957183      -2.08706847       0.00000000
