10
Lattice="16.28999089631971 0.0 0.0 0.0 16.28999089631971 0.0 0.0 0.0 34.433804113860816" Properties=species:S:1:pos:R:3:initial_magmoms:R:1 pbc="T T T"
Si      -0.81628280       0.61178724      -2.29126104       0.00000000
Si       0.97119351      -2.21662917      -0.70038397       0.00000000
Si       1.01048825       2.26507563       0.64329269       0.00000000
Si       0.27157059      -1.20063816       2.25897441       0.00000000
Si       1.18661573       0.34707474      -3.58149640       0.00000000
Si       1.89027531      -1.75029534      -2.80349860       0.00000000
Si       2.72297124       1.48173840       2.23781975       0.00000000
Si       1.07436948       0.51323274       3.65485219       0.00000000
Si      -2.49824159      -1.07966862      -2.74523657       0.00000000
Si       1.76927319       3.45655881      -1.41464476       0.00000000
