10
Lattice="16.28999089631971 0.0 0.0 0.0 16.28999089631971 0.0 0.0 0.0 34.433804113860816" Properties=species:S:1:pos:R:3:initial_magmoms:R:1 pbc="T T T"
Si       1.34256153       1.34268696      -1.36735680       0.00000000
Si      -1.35897148       1.35336835       1.35803556       0.00000000
Si       1.35453468      -1.36334268       1.35899971       0.00000000
Si      -1.38328604      -1.34835588      -1.37418158       0.00000000
Si       2.59839021      -0.09138690      -2.76620677       0.00000000
Si       2.71631352       2.70772773      -0.00437310       0.00000000
Si      -0.00125922       2.71124148       2.71472820       0.00000000
Si       2.71123104      -2.71603170       0.00289244       0.00000000
Si       2.71300665      -0.00314397       2.71496924       0.00000000
Si      -2.71583852       2.71233128      -0.00278914       0.00000000
