10
Lattice="16.28999089631971 0.0 0.0 0.0 16.28999089631971 0.0 0.0 0.0 34.433804113860816" Properties=species:S:1:pos:R:3:initial_magmoms:R:1 pbc="T T T"
Si      -1.35979309       1.35808101      -1.36409591       0.00000000
Si       1.35984033      -1.35851432      -1.36609307       0.00000000
Si      -1.37339687      -1.36118751       1.35800113       0.00000000
Si       1.37446875       1.37060802       1.38169160       0.00000000
Si      -2.64081246       0.12412980       2.74967853       0.00000000
Si       2.70762606      -2.70549926      -0.01232731       0.00000000
Si       2.71290402       2.71373481      -0.00530281       0.00000000
Si      -2.71474188      -2.71408171      -0.00561271       0.00000000
Si      -2.71340217       2.71544526      -0.01064005       0.00000000
Si       0.00086337      -2.71386946      -2.72199374       0.00000000
