10
Lattice="16.290000149 0.0 0.0 0.0 16.290000149 0.0 0.0 0.0 29.1751946751" Properties=species:S:1:pos:R:3:initial_magmoms:R:1 pbc="T T T"
Si       1.32844463      -1.36138789       1.37348064       0.00000000
Si      -1.37054776      -1.36762696      -1.32539992       0.00000000
Si      -1.36541641       1.35110890       1.34967368       0.00000000
Si       1.36773611       1.36401058      -1.34485977       0.00000000
Si       0.01084588      -2.71512437      -2.66451218       0.00000000
Si      -2.69580443       0.01412343      -2.68741471       0.00000000
Si       2.68411473       0.00649971       2.71098826       0.00000000
Si      -0.02294447       2.71174745       2.70357776       0.00000000
Si       2.72710404       0.00907353      -2.69920149       0.00000000
Si      -2.70189689       2.72570799      -0.00405535       0.00000000
