10
Lattice="16.290000149 0.0 0.0 0.0 16.290000149 0.0 0.0 0.0 29.1751946751" Properties=species:S:1:pos:R:3:initial_magmoms:R:1 pbc="T T T"
Si       1.08258454      -1.42006447      -1.49823377       0.00000000
Si      -1.54528570       1.32432814      -1.18535898       0.00000000
Si      -1.05554314      -1.76269205       1.18153703       0.00000000
Si       2.12718080       0.96989032       0.68001544       0.00000000
Si       0.21893760       0.80738128       3.38683165       0.00000000
Si       2.37749294      -2.71396289      -0.07165428       0.00000000
Si      -0.20188197       2.70317891      -2.49844697       0.00000000
Si       2.49748508      -0.09342315      -2.73686666       0.00000000
Si      -1.40180338      -0.88060483       3.31698623       0.00000000
Si       0.54604081      -3.53950752       1.09194001       0.00000000
