10
Lattice="16.290000149 0.0 0.0 0.0 16.290000149 0.0 0.0 0.0 29.1751946751" Properties=species:S:1:pos:R:3:initial_magmoms:R:1 pbc="T T T"
Si       1.34421823       1.35506900      -1.36598261       0.00000000
Si      -1.35690814      -1.36264059      -1.35011131       0.00000000
Si       1.38971620      -1.34820765       1.33321887       0.00000000
Si      -1.38445453       1.35475949       1.33441505       0.00000000
Si       0.02609658      -2.69833916       2.68300925       0.00000000
Si      -0.02878443       2.72264709       2.67192268       0.00000000
Si      -2.70205328       0.00102301      -2.70357776       0.00000000
Si       2.70374906      -0.00245979      -2.70579508       0.00000000
Si       2.71738379       2.70256152      -0.02284418       0.00000000
Si       2.70958088      -2.71660025      -0.05053144       0.00000000
