10
Lattice="16.290000149 0.0 0.0 0.0 16.290000149 0.0 0.0 0.0 29.1751946751" Properties=species:S:1:pos:R:3:initial_magmoms:R:1 pbc="T T T"
Si      -1.36720342      -1.35773893      -1.32963032       0.00000000
Si      -1.43757622       1.33511212       1.28084940       0.00000000
Si       1.35327547       1.35163018      -1.36157716       0.00000000
Si       1.36335898      -1.32594085       1.38019093       0.00000000
Si      -0.08715150       2.67815747       2.59300378       0.00000000
Si      -0.09343944      -2.62446563       2.68271750       0.00000000
Si       0.00397476      -2.71425611      -2.66249909       0.00000000
Si      -2.71060715       0.02516805      -2.67314804       0.00000000
Si       2.73155609      -0.01480761      -2.67329391       0.00000000
Si       2.73074159       2.69202026      -0.02952530       0.00000000
