10
Lattice="16.290000149 0.0 0.0 0.0 16.290000149 0.0 0.0 0.0 29.1751946751" Properties=species:S:1:pos:R:3:initial_magmoms:R:1 pbc="T T T"
Si       0.42938811      -0.24130377       2.28694665       0.00000000
Si      -1.72405217       1.61942149       0.10365947       0.00000000
Si      -0.05528826      -2.29278494      -0.66332723       0.00000000
Si       1.86386924       0.90824896      -1.27305962       0.00000000
H       -0.92528830       0.16808022      -2.54139286       0.00000000
Si       2.14866731      -2.66825315       0.14345443       0.00000000
Si      -0.34712361       3.37919763      -0.80342651       0.00000000
Si       2.06566976      -1.97309369       2.37301406       0.00000000
Si      -3.76476564       0.58060819      -0.63129286       0.00000000
Si       3.45548370       1.71914888       0.29131432       0.00000000
