10
Lattice="16.290000149 0.0 0.0 0.0 16.290000149 0.0 0.0 0.0 29.1751946751" Properties=species:S:1:pos:R:3:initial_magmoms:R:1 pbc="T T T"
Si      -1.27238520       1.36099693       1.42202816       0.00000000
Si       1.34796982      -1.33563340       1.37578548       0.00000000
Si       1.34182849       1.36878355      -1.36286087       0.00000000
Si      -1.37954636      -1.36143676      -1.33345227       0.00000000
Si       2.66156285       0.13172094       2.65470931       0.00000000
Si       0.01684875      -2.69865192      -2.68155049       0.00000000
Si      -2.66376852       2.71743266       0.07232531       0.00000000
Si      -2.68359345       0.01984122      -2.70769147       0.00000000
Si      -0.06126343      -2.63215614       2.76300764       0.00000000
Si       2.71962041       0.02296890      -2.72041185       0.00000000
