10
Lattice="16.290000149 0.0 0.0 0.0 16.290000149 0.0 0.0 0.0 29.1751946751" Properties=species:S:1:pos:R:3:initial_magmoms:R:1 pbc="T T T"
Si       1.41872869      -1.33058350      -1.30445213       0.00000000
Si       1.36363591       1.32598972       1.37409332       0.00000000
Si      -1.35312886      -1.37450134       1.34626018       0.00000000
Si      -1.35252613       1.31900131      -1.40621521       0.00000000
Si       0.10647144      -2.69167817      -2.64819449       0.00000000
Si       2.73668744       2.64995948       0.01759264       0.00000000
Si      -0.00045612       2.70787043       2.69465016       0.00000000
Si      -2.71060715       2.69309540      -0.05207772       0.00000000
Si      -2.72310158      -0.01128897       2.68338853       0.00000000
Si       0.01291797       2.67040343      -2.75702964       0.00000000
