10
Lattice="16.290000149 0.0 0.0 0.0 16.290000149 0.0 0.0 0.0 29.1751946751" Properties=species:S:1:pos:R:3:initial_magmoms:R:1 pbc="T T T"
Si       1.74684188       0.32222272      -1.49245708       0.00000000
Si      -1.91821268       1.05989583      -0.77865677       0.00000000
Si       0.63897526       0.67659050       2.14650660       0.00000000
Si      -0.04437396      -2.14559339       0.97952799       0.00000000
Si       1.86386924      -1.98308435      -1.72728823       0.00000000
Si      -0.60442417      -1.10998921       2.98914457       0.00000000
H        1.32742324       2.98860741       0.00764390       0.00000000
Si      -0.75642616       2.50011918      -2.28208373       0.00000000
Si      -2.89184970       1.46277197       1.37380157       0.00000000
Si       2.15052437      -2.86849472       0.51412528       0.00000000
