10
Lattice="16.290000149 0.0 0.0 0.0 16.290000149 0.0 0.0 0.0 29.1751946751" Properties=species:S:1:pos:R:3:initial_magmoms:R:1 pbc="T T T"
Si      -2.19489833       0.72290134       0.46540271       0.00000000
Si      -0.26943660      -2.03087432       1.19504515       0.00000000
Si       1.57455883       1.31105179       1.20691945       0.00000000
Si      -0.28665513       0.88541038      -2.24141351       0.00000000
H        2.24740100      -0.95345371      -1.63430688       0.00000000
H        0.80736499      -1.86414617      -2.18253796       0.00000000
H        1.61450191      -2.61244361      -0.53122194       0.00000000
H        1.04353741      -2.49362435       1.79663766       0.00000000
Si      -2.15052437       2.86849472      -0.51412528       0.00000000
Si      -2.41383593      -0.08447994      -2.92142894       0.00000000
