10
Lattice="16.290000149 0.0 0.0 0.0 16.290000149 0.0 0.0 0.0 29.1751946751" Properties=species:S:1:pos:R:3:initial_magmoms:R:1 pbc="T T T"
Si      -1.46562597      -1.38163636       1.21538026       0.00000000
Si       1.33863076      -1.33058350      -1.40828665       0.00000000
Si      -1.34706898       1.35257500      -1.38637608       0.00000000
Si       1.41309235       1.39359322       1.29914224       0.00000000
Si      -0.11466531       2.65711079       2.51303457       0.00000000
Si      -0.04816953      -2.60504795       2.59227440       0.00000000
Si       2.75936313       2.68480379      -0.07130418       0.00000000
Si      -2.80746750      -0.08057034       2.63883801       0.00000000
Si      -0.01013238       2.70334181      -2.75612229       0.00000000
Si       2.75856492      -2.70298343      -0.15544544       0.00000000
