10
Lattice="16.290000149 0.0 0.0 0.0 16.290000149 0.0 0.0 0.0 29.1751946751" Properties=species:S:1:pos:R:3:initial_magmoms:R:1 pbc="T T T"
H       -0.59305375      -0.09255978      -1.40396872       0.00000000
Si       0.48606102      -2.03268251       1.05021948       0.00000000
Si      -1.72493183       0.43826616       1.51985259       0.00000000
H        1.51956379      -0.85212991      -1.71170867       0.00000000
Si       1.90705403       1.49294593       0.31675509       0.00000000
Si       0.80234767      -0.93429667      -3.03734199       0.00000000
Si      -2.56718999       2.28925001       0.39879574       0.00000000
Si      -0.33549255       1.46321668       3.14858701       0.00000000
Si       2.07767549      -1.22178259       2.61459342       0.00000000
Si       0.93058255       2.94805020       1.82432492       0.00000000
