10
Lattice="16.290000149 0.0 0.0 0.0 16.290000149 0.0 0.0 0.0 29.1751946751" Properties=species:S:1:pos:R:3:initial_magmoms:R:1 pbc="T T T"
Si       1.24724386      -1.37156914       1.41456515       0.00000000
Si      -1.29112912       1.44430399       1.32985789       0.00000000
Si       1.90939979       0.79410493      -1.12063965       0.00000000
Si      -1.84103066      -0.88277140      -1.18444872       0.00000000
H        0.68813848      -1.82695610      -1.91735003       0.00000000
Si       1.25193538       1.21327921      -3.25185261       0.00000000
Si       2.66595626       0.05939334       2.64929732       0.00000000
Si      -2.72008793       0.05556519       2.61151544       0.00000000
Si       2.74564695      -2.60998871       0.13694836       0.00000000
Si      -3.47731230       0.84901852      -1.27051613       0.00000000
