10
Lattice="16.290000149 0.0 0.0 0.0 16.290000149 0.0 0.0 0.0 29.1751946751" Properties=species:S:1:pos:R:3:initial_magmoms:R:1 pbc="T T T"
Si      -1.33491664      -1.33891584       1.32958072       0.00000000
Si       1.49840308      -1.23841957      -1.27761679       0.00000000
Si      -1.24724386       1.37156914      -1.41456515       0.00000000
Si       1.41871240       1.43096248       1.23473217       0.00000000
Si       0.66215593       2.16567407      -2.53520480       0.00000000
H       -0.55910539      -0.45538695      -3.33191518       0.00000000
Si       2.36104004       0.49000320      -2.66091721       0.00000000
Si       0.09847305      -2.68581377       2.59175800       0.00000000
Si      -2.66647754       0.07884360       2.61623598       0.00000000
Si      -2.69882948      -2.62041895      -0.07824787       0.00000000
