10
Lattice="16.290000149 0.0 0.0 0.0 16.290000149 0.0 0.0 0.0 29.1751946751" Properties=species:S:1:pos:R:3:initial_magmoms:R:1 pbc="T T T"
Si      -2.06760827       0.72345520      -0.84926074       0.00000000
Si      -0.78543865      -1.49821738       1.71083342       0.00000000
Si       1.05112855      -0.66993603      -2.06995089       0.00000000
Si       0.92253529       2.08185225       0.81214989       0.00000000
H       -1.38500839       2.28002010       1.72489586       0.00000000
Si      -1.31165452       1.31068852      -3.00166073       0.00000000
Si      -2.66981699       2.23046592       0.91102463       0.00000000
H        0.38946132      -3.58014456      -0.53066762       0.00000000
Si      -2.32676588      -2.80555505       0.51558404       0.00000000
Si      -3.35514545      -1.26142594      -0.96499874       0.00000000
