10
Lattice="16.290000149 0.0 0.0 0.0 16.290000149 0.0 0.0 0.0 29.1751946751" Properties=species:S:1:pos:R:3:initial_magmoms:R:1 pbc="T T T"
Si      -1.29016801      -1.43831465       1.28134537       0.00000000
Si       1.30339549      -1.41265790      -1.33844123       0.00000000
Si      -1.43373178       1.62728419      -0.92712934       0.00000000
Si       1.19016370       1.14771473       1.69189871       0.00000000
Si      -0.80304814       2.03619577       2.67066815       0.00000000
Si      -2.31954941       0.18521518       2.59918892       0.00000000
Si      -0.08576685       2.64663095      -2.56111529       0.00000000
Si       2.62941209       2.56799912       0.34275019       0.00000000
Si       0.23574888      -2.43729891       2.78608522       0.00000000
Si       1.76355542      -0.59209801       3.20976739       0.00000000
