10
Lattice="16.290000149 0.0 0.0 0.0 16.290000149 0.0 0.0 0.0 29.1751946751" Properties=species:S:1:pos:R:3:initial_magmoms:R:1 pbc="T T T"
Si       1.30114747       1.29691207      -1.49700841       0.00000000
Si       1.25913556      -1.64558324       1.15177834       0.00000000
Si      -0.99786025       1.76476088       1.26742881       0.00000000
Si      -1.29777544      -1.67167982      -1.17689818       0.00000000
H        0.22737582      -2.75509515       1.36563251       0.00000000
H       -3.05479857      -1.04093101       0.35240718       0.00000000
H       -2.48383406      -1.15975027      -1.97545243       0.00000000
H       -0.26324640      -1.23934321       3.21070100       0.00000000
H       -1.85093498       0.49923963      -3.07853737       0.00000000
Si      -2.52377714       2.76374514      -0.23731103       0.00000000
