10
Lattice="16.290000149 0.0 0.0 0.0 16.290000149 0.0 0.0 0.0 29.1751946751" Properties=species:S:1:pos:R:3:initial_magmoms:R:1 pbc="T T T"
Si      -1.30468240       1.42456051       1.30291255       0.00000000
Si       1.26607510       1.48483351      -1.32426209       0.00000000
Si       1.45311688      -1.41486796       1.21888128       0.00000000
Si      -1.38943927      -1.02495052      -1.62873442       0.00000000
Si       0.33549255      -1.46321668      -3.14858701       0.00000000
Si      -0.42492465       2.41191371      -2.63586214       0.00000000
Si       2.24254658       0.02972925      -2.83183192       0.00000000
Si      -2.23169744       0.82603333      -2.74979127       0.00000000
Si       2.41316804      -2.68499927      -0.53399359       0.00000000
Si      -2.59892291      -0.06616998       2.57195387       0.00000000
