10
Lattice="16.290000149 0.0 0.0 0.0 16.290000149 0.0 0.0 0.0 29.1751946751" Properties=species:S:1:pos:R:3:initial_magmoms:R:1 pbc="T T T"
Si      -1.88669153      -1.34167699      -0.38884699       0.00000000
Si       0.52401672       1.25659758      -1.93028923       0.00000000
H       -0.89564050      -0.99704575       2.06364904       0.00000000
Si       1.93132613      -1.49330431       0.31561726       0.00000000
Si      -1.61274259       1.53170147       1.07694396       0.00000000
H       -2.79764463      -1.41403717       0.82571636       0.00000000
Si       0.19526823       2.86187610       1.68069544       0.00000000
Si      -2.77610925       0.08052147      -1.98003294       0.00000000
Si      -0.01360215      -1.84492397       2.95766454       0.00000000
Si       1.55339812      -0.36693225      -3.24813277       0.00000000
