10
Lattice="16.290000149 0.0 0.0 0.0 16.290000149 0.0 0.0 0.0 29.1751946751" Properties=species:S:1:pos:R:3:initial_magmoms:R:1 pbc="T T T"
H       -0.07522722      -1.07890300      -1.05617122       0.00000000
Si       2.20302867       0.16923681       0.64293377       0.00000000
Si      -1.61898166      -0.65866987       1.57283474       0.00000000
Si      -0.45851463       2.12729483      -0.89967548       0.00000000
H       -1.90229735       2.41500881      -0.46572363       0.00000000
H        1.07965071       0.73715509      -2.99716775       0.00000000
Si      -3.15452595      -1.38380293      -0.03970744       0.00000000
H       -1.28340766      -3.22979064       0.67811905       0.00000000
Si       2.98766748      -2.08205750       0.44462997       0.00000000
Si       3.51316659      -0.06693561      -1.26547407       0.00000000
