10
Lattice="16.290000149 0.0 0.0 0.0 16.290000149 0.0 0.0 0.0 29.1751946751" Properties=species:S:1:pos:R:3:initial_magmoms:R:1 pbc="T T T"
Si       1.21865898      -1.28454959      -1.60451901       0.00000000
Si      -1.28781655       1.34954506      -1.50030521       0.00000000
Si      -1.43924839      -1.42028439       1.34914853       0.00000000
Si       1.31793839       1.70048054       1.13158910       0.00000000
H        2.83247835       0.23131800       0.50537272       0.00000000
H        0.17969906       2.66525579       1.41858549       0.00000000
H       -0.97517887       0.84919771       3.35958202       0.00000000
Si      -2.62941209      -2.56799912      -0.34275019       0.00000000
Si       3.44587830      -1.07373418       0.94769785       0.00000000
Si       2.59814670      -2.73546570      -0.44690563       0.00000000
