10
Lattice="16.290000149 0.0 0.0 0.0 16.290000149 0.0 0.0 0.0 29.1751946751" Properties=species:S:1:pos:R:3:initial_magmoms:R:1 pbc="T T T"
Si       1.33693660       1.35076681      -1.36974621       0.00000000
Si      -1.37959148       1.39505867       1.29782936       0.00000000
Si       1.34706898      -1.35257500       1.38637608       0.00000000
Si      -1.37970302      -1.35948196      -1.35679243       0.00000000
Si      -0.11855699      -2.73421137       2.60175634       0.00000000
Si      -2.69175962       0.05934447       2.66512486       0.00000000
Si       2.68569974      -2.68315850      -0.02191057       0.00000000
Si       2.68092677       2.69694147       0.01858460       0.00000000
Si      -0.06897186       2.68895612      -2.70276086       0.00000000
Si       2.68868081      -0.01040931      -2.73053564       0.00000000
