10
Lattice="16.290000149 0.0 0.0 0.0 16.290000149 0.0 0.0 0.0 29.1751946751" Properties=species:S:1:pos:R:3:initial_magmoms:R:1 pbc="T T T"
Si      -1.32476797      -1.33692031      -1.39550499       0.00000000
Si       1.36057339       1.31124727      -1.39827956       0.00000000
Si      -1.37870416       1.35910729       1.33671989       0.00000000
Si       1.35387820      -1.36674730       1.35623810       0.00000000
Si       2.70172910       2.68361462      -0.03390158       0.00000000
Si      -2.69264254      -2.70049106      -0.03153839       0.00000000
Si       0.09695808      -2.72057663      -2.67987584       0.00000000
Si      -0.01762578       2.71407692       2.69074068       0.00000000
Si       2.70112637      -0.00988803       2.71857382       0.00000000
Si      -0.01145187       2.65693160      -2.76593974       0.00000000
