10
Lattice="16.290000149 0.0 0.0 0.0 16.290000149 0.0 0.0 0.0 29.1751946751" Properties=species:S:1:pos:R:3:initial_magmoms:R:1 pbc="T T T"
Si       1.44378271      -0.28771398      -0.43395185       0.00000000
Si      -1.97451092       0.10459809       1.08175787       0.00000000
Si      -1.20725191       1.97543945      -0.19990843       0.00000000
Si       0.67650742       2.65382021       1.08438364       0.00000000
Si       1.09411786      -0.03681540      -2.78879851       0.00000000
Si      -0.58147156       1.64400310      -2.53123989       0.00000000
Si       1.90229735      -2.41500881       0.46572363       0.00000000
Si      -0.94560193      -1.22140792       2.70597013       0.00000000
Si       2.68654682       1.28503666       0.95618783       0.00000000
H        1.63382185       2.42173658      -1.40849087       0.00000000
