10
Lattice="16.290000149 0.0 0.0 0.0 16.290000149 0.0 0.0 0.0 29.1751946751" Properties=species:S:1:pos:R:3:initial_magmoms:R:1 pbc="T T T"
Si      -0.48606102       2.03268251      -1.05021948       0.00000000
Si       1.59161446       0.81089992       1.56437394       0.00000000
Si       1.29437083      -1.50214978      -1.32011921       0.00000000
Si      -1.86386924      -0.90824896       1.27305962       0.00000000
H       -2.78915754      -0.74016874      -1.26833324       0.00000000
H        1.03350277       1.18055260      -2.76192815       0.00000000
H       -1.07911477       1.94012273      -2.45418820       0.00000000
Si      -2.21099285       2.47094867       0.46963311       0.00000000
Si       2.22180941      -2.54422109       0.51467961       0.00000000
Si       3.29476656      -0.78529204       1.57866978       0.00000000
