10
Lattice="16.290000149 0.0 0.0 0.0 16.290000149 0.0 0.0 0.0 29.1751946751" Properties=species:S:1:pos:R:3:initial_magmoms:R:1 pbc="T T T"
Si       1.41490054       1.32664132      -1.23863289       0.00000000
Si      -1.42617322      -1.38939040      -1.17952395       0.00000000
Si       1.29490840      -1.29389842       1.42657949       0.00000000
Si      -1.08258454       1.42006447       1.49823377       0.00000000
H        2.13861638      -0.35960175       2.23712475       0.00000000
Si      -0.53654373      -2.11944305       2.59017378       0.00000000
Si       1.04459626       2.38995479       2.17824921       0.00000000
Si      -2.13812768      -0.34262757       2.67977081       0.00000000
Si       2.64536570       2.46386252       0.38689226       0.00000000
Si       0.00786807      -2.71132391      -2.46174458       0.00000000
