10
Lattice="16.290000149 0.0 0.0 0.0 16.290000149 0.0 0.0 0.0 29.1751946751" Properties=species:S:1:pos:R:3:initial_magmoms:R:1 pbc="T T T"
Si       0.92743858      -1.04207131       1.83479882       0.00000000
Si      -0.76975138      -2.04675707      -0.87936954       0.00000000
Si      -1.29437083       1.50214978       1.32011921       0.00000000
Si       1.99259282       0.59869009      -1.16916675       0.00000000
H       -0.26086806       2.68270238      -1.44180895       0.00000000
Si      -0.15460839      -1.53122743      -3.06117813       0.00000000
Si       2.26126379      -2.58644477       0.67657276       0.00000000
Si      -1.00957276      -2.07435233       2.73663326       0.00000000
Si       2.00039573       0.71685775       2.89878899       0.00000000
Si       0.29724363       2.31304970       2.88449315       0.00000000
