10
Lattice="16.290000149 0.0 0.0 0.0 16.290000149 0.0 0.0 0.0 29.1751946751" Properties=species:S:1:pos:R:3:initial_magmoms:R:1 pbc="T T T"
Si      -1.41745644       1.22341159      -1.37689414       0.00000000
Si      -1.31101921      -1.48962277       1.26987952       0.00000000
Si       1.50470731      -1.33463971      -1.24782308       0.00000000
Si       0.66412702       1.87704785       1.29651648       0.00000000
Si       0.04816953       2.60504795      -2.59227440       0.00000000
Si       0.25396110      -2.56469762       2.63396575       0.00000000
Si      -2.75929797       2.52447761       0.04656361       0.00000000
Si       0.06936282      -2.74369215      -2.56514147       0.00000000
Si      -2.70560612      -0.18635760      -2.69575881       0.00000000
Si      -0.98792335       3.53056431       1.19898380       0.00000000
