10
Lattice="16.290000149 0.0 0.0 0.0 16.290000149 0.0 0.0 0.0 29.1751946751" Properties=species:S:1:pos:R:3:initial_magmoms:R:1 pbc="T T T"
Si       1.43866249      -1.34982199       1.28656773       0.00000000
Si      -1.25804413      -1.36761067      -1.45525871       0.00000000
Si       1.37868787       1.32686938      -1.38952700       0.00000000
Si      -1.43001766       1.28161576       1.41222530       0.00000000
Si       0.08922033      -2.76011247       2.59180759       0.00000000
Si      -2.69123834       2.67382596      -0.01794274       0.00000000
Si      -0.03012021       2.69842875       2.66985124       0.00000000
Si      -2.59532282      -2.81517267      -0.19879978       0.00000000
Si      -2.72740214      -0.30838599       2.68858171       0.00000000
Si       2.74939365       2.69861609      -0.05940070       0.00000000
