10
Lattice="16.290000149 0.0 0.0 0.0 16.290000149 0.0 0.0 0.0 29.1751946751" Properties=species:S:1:pos:R:3:initial_magmoms:R:1 pbc="T T T"
Si      -1.39585753      -1.31632975      -1.35066564       0.00000000
Si      -1.34332228       1.30442176       1.41823539       0.00000000
Si       1.35156502      -1.39356064       1.34774812       0.00000000
Si       1.30702816       1.34527708      -1.43846839       0.00000000
Si       2.69195999       2.63731844      -0.00773143       0.00000000
Si      -2.68713326       2.64256382       0.04341269       0.00000000
Si      -0.08026083      -2.75222811      -2.64181971       0.00000000
Si       2.71245444      -0.09995544      -2.69086905       0.00000000
Si       0.01601307       2.65043189       2.78267172       0.00000000
Si       2.71479531      -0.06214635       2.72706380       0.00000000
