10
Lattice="16.290000149 0.0 0.0 0.0 16.290000149 0.0 0.0 0.0 29.1751946751" Properties=species:S:1:pos:R:3:initial_magmoms:R:1 pbc="T T T"
Si      -0.84225817       1.85098385      -1.12105686       0.00000000
Si       1.72493183      -0.43826616      -1.51985259       0.00000000
Si       1.38943927       1.02495052       1.62873442       0.00000000
Si      -1.37692855      -1.75977614       0.90708598       0.00000000
H        1.13187808      -0.53082594      -2.92382131       0.00000000
H       -1.98684245      -1.18025938      -2.19301186       0.00000000
Si       2.21099285      -2.47094867      -0.46963311       0.00000000
Si       0.34712361      -3.37919763       0.80342651       0.00000000
Si       2.65551437       2.50978403       0.30447233       0.00000000
Si      -2.36159390      -0.53844966       2.76397042       0.00000000
