10
Lattice="16.290000149 0.0 0.0 0.0 16.290000149 0.0 0.0 0.0 29.1751946751" Properties=species:S:1:pos:R:3:initial_magmoms:R:1 pbc="T T T"
Si       1.29503872       1.28611066       1.50570846       0.00000000
Si      -1.33662709      -1.36221005       1.40889349       0.00000000
Si       1.47895282      -1.29993338      -1.34200060       0.00000000
Si      -1.35972631       1.38064153      -1.39991337       0.00000000
Si      -0.00962739      -2.55470322      -2.71536454       0.00000000
Si      -2.61153137       2.72213282       0.08758335       0.00000000
Si       2.69179220      -2.71431264       0.11035167       0.00000000
Si       2.28594314       3.07080398       0.35190245       0.00000000
Si       2.36894069       2.37564452      -1.87765718       0.00000000
Si       0.16498512       2.75111273      -2.68443884       0.00000000
