10
Lattice="16.290000149 0.0 0.0 0.0 16.290000149 0.0 0.0 0.0 29.1751946751" Properties=species:S:1:pos:R:3:initial_magmoms:R:1 pbc="T T T"
Si      -0.73008523       2.18964806       0.40235511       0.00000000
Si       1.89710084       0.55361077       1.28799732       0.00000000
Si      -1.62007309      -1.48592983       0.93801168       0.00000000
Si       0.73274050       0.34738100      -2.26145686       0.00000000
H        1.44984259      -2.18136623      -1.27475178       0.00000000
H        1.71608636       1.94062283       1.89901342       0.00000000
Si       2.54075132       1.67755562      -1.65770539       0.00000000
Si       1.20692611       3.22192908      -0.49947933       0.00000000
H       -0.45216153      -2.59835765      -2.51268447       0.00000000
Si      -0.40723371      -2.90030909       2.39036396       0.00000000
