10
Lattice="16.290000149 0.0 0.0 0.0 16.290000149 0.0 0.0 0.0 29.1751946751" Properties=species:S:1:pos:R:3:initial_magmoms:R:1 pbc="T T T"
H       -1.21756348      -0.51548076      -1.03449405       0.00000000
Si      -1.53598411       1.27584910       1.20633595       0.00000000
Si       1.11485503      -1.52415757       1.37769762       0.00000000
Si       1.66189930       0.68584159      -1.51474693       0.00000000
H        1.51986842       2.43103817       0.62405741       0.00000000
Si      -2.49140891      -1.09340110      -1.96136081       0.00000000
Si       3.08446266      -1.23165433      -1.46462395       0.00000000
Si       2.61070547      -0.13232367       2.54987409       0.00000000
Si      -0.22745727       2.60535746       2.64457969       0.00000000
Si       2.86889709       2.34926237      -0.33344330       0.00000000
