10
Lattice="16.290000149 0.0 0.0 0.0 16.290000149 0.0 0.0 0.0 29.1751946751" Properties=species:S:1:pos:R:3:initial_magmoms:R:1 pbc="T T T"
Si      -1.31872438       1.32189442       1.39885431       0.00000000
Si       0.99090442       1.78469332      -1.15380601       0.00000000
Si       1.38034945      -1.32452338       1.36695998       0.00000000
Si      -1.29503872      -1.28611066      -1.50570846       0.00000000
Si      -2.52296264       2.71825694      -0.04349438       0.00000000
Si       1.07390197       1.08953385      -3.38336564       0.00000000
Si      -2.63166581      -2.64832071      -0.09681497       0.00000000
Si      -0.64537723       3.51648324      -1.23987342       0.00000000
Si       0.11184714       2.72302991       2.64215815       0.00000000
Si       0.03122793      -2.72203296       2.67605972       0.00000000
