10
Lattice="16.290000149 0.0 0.0 0.0 16.290000149 0.0 0.0 0.0 29.1751946751" Properties=species:S:1:pos:R:3:initial_magmoms:R:1 pbc="T T T"
Si       1.30085425      -1.34829073       1.41928570       0.00000000
Si      -1.37788966       1.34905636       1.35046141       0.00000000
Si      -1.43057152      -1.40113549      -1.24330384       0.00000000
Si       1.42895881       1.38873880      -1.28165755       0.00000000
Si      -2.63480978      -0.00477297      -2.68565253       0.00000000
Si       2.72008793      -0.05556519      -2.61151544       0.00000000
Si       0.05343120       2.65189799      -2.69967412       0.00000000
Si      -0.11184714      -2.72302991      -2.64215815       0.00000000
Si       2.63241515      -2.76605017       0.13263044       0.00000000
Si      -0.03064149       2.70591563       2.71279713       0.00000000
