10
Lattice="16.290000149 0.0 0.0 0.0 16.290000149 0.0 0.0 0.0 29.1751946751" Properties=species:S:1:pos:R:3:initial_magmoms:R:1 pbc="T T T"
Si       0.97881724      -1.85890079       0.89655373       0.00000000
Si      -1.48592494      -1.01335204      -1.47060486       0.00000000
Si      -1.61057602       0.78855004       1.52154475       0.00000000
Si       1.65957635       1.52432047      -0.73404790       0.00000000
H        0.91191421       2.07770807       1.76655804       0.00000000
H        0.26037936       2.49919553       1.72256184       0.00000000
H       -0.89335990       0.87071680       2.84717807       0.00000000
Si      -1.95216104       2.73888660       0.15068988       0.00000000
Si       0.17249481       3.32421888      -0.85153641       0.00000000
Si      -0.05453892      -2.23964696      -2.75653074       0.00000000
