10
Lattice="16.290000149 0.0 0.0 0.0 16.290000149 0.0 0.0 0.0 29.1751946751" Properties=species:S:1:pos:R:3:initial_magmoms:R:1 pbc="T T T"
Si       1.37358910       1.38362374       1.30888676       0.00000000
Si       1.37140624      -1.33838967      -1.36554499       0.00000000
Si      -1.32403492       1.36311463      -1.39349482       0.00000000
Si      -1.36660069      -1.35965952       1.37648568       0.00000000
Si      -2.67411755      -2.67292838      -0.06961201       0.00000000
Si       2.67763619       0.00234576       2.68312595       0.00000000
Si      -2.68428251       2.71498916      -0.04081610       0.00000000
Si       2.70332552      -2.70661610       0.00490143       0.00000000
Si      -2.69029352       0.03455109       2.74092201       0.00000000
Si       0.04957047       2.75423178       2.68190060       0.00000000
