10
Lattice="16.290000149 0.0 0.0 0.0 16.290000149 0.0 0.0 0.0 29.1751946751" Properties=species:S:1:pos:R:3:initial_magmoms:R:1 pbc="T T T"
Si      -1.22891761       1.85227076       0.66741175       0.00000000
Si      -1.53554428      -0.72513307      -1.61254218       0.00000000
Si       1.61898166       0.65866987      -1.57283474       0.00000000
Si       0.06978636      -1.46865754       1.92728419       0.00000000
H        0.33557400      -2.57112077      -0.89471570       0.00000000
H        0.04492782       2.43019109       1.59427851       0.00000000
H        1.54375444      -0.42023313      -2.62900597       0.00000000
Si      -2.75877669      -2.04693626      -0.12116458       0.00000000
H       -0.28331568       3.07367868      -2.03855838       0.00000000
Si       2.31269132      -1.98809678       2.20261050       0.00000000
