10
Lattice="16.290000149 0.0 0.0 0.0 16.290000149 0.0 0.0 0.0 29.1751946751" Properties=species:S:1:pos:R:3:initial_magmoms:R:1 pbc="T T T"
Si       2.30120687       0.06475275      -0.45002738       0.00000000
Si      -0.85978621       2.07813161      -0.79484900       0.00000000
Si      -0.14257008       0.41262570       2.35919377       0.00000000
Si      -0.92253529      -2.08185225      -0.81214989       0.00000000
H       -2.30754368       0.19816785       0.91274597       0.00000000
H       -1.01257012       2.87349087       0.48112814       0.00000000
Si      -3.59235228       0.14861367       0.09887473       0.00000000
Si      -2.99014356      -1.35839705      -1.66141064       0.00000000
Si       3.07095825       2.11150982       0.42934216       0.00000000
Si       2.06138549       0.03715749       3.16597543       0.00000000
