10
Lattice="16.290000149 0.0 0.0 0.0 16.290000149 0.0 0.0 0.0 29.1751946751" Properties=species:S:1:pos:R:3:initial_magmoms:R:1 pbc="T T T"
Si       1.29248119      -1.41406975       1.35705501       0.00000000
Si      -1.33351570       1.06877062       1.62138227       0.00000000
Si       1.31909905       1.32652729      -1.44105039       0.00000000
Si      -1.40921533      -1.36441783      -1.31790189       0.00000000
H       -2.51957432       1.58070016       0.82282802       0.00000000
Si       2.71368596       0.02326212       2.52458795       0.00000000
Si      -2.02365785      -0.79237819       3.04116394       0.00000000
Si      -0.34806843      -2.47319669       2.78360532       0.00000000
H       -1.88667524       3.23969007      -0.28025692       0.00000000
Si       2.60724873       2.73629648      -0.12218572       0.00000000
