10
Lattice="16.290000149 0.0 0.0 0.0 16.290000149 0.0 0.0 0.0 29.1751946751" Properties=species:S:1:pos:R:3:initial_magmoms:R:1 pbc="T T T"
Si       1.34912152       1.39750958      -1.30909974       0.00000000
Si      -1.32370912       1.35149986       1.38471309       0.00000000
Si      -1.33599178      -1.32615262      -1.40544498       0.00000000
Si       1.38435679      -1.35562123       1.34086277       0.00000000
Si       2.66753639      -0.09073530      -2.51880250       0.00000000
Si       0.02440242      -2.71816571       2.67343979       0.00000000
Si       2.71303436       2.67901270       0.09872886       0.00000000
Si      -0.03122793       2.72203296      -2.67605972       0.00000000
Si      -2.71057457      -0.00866628       2.68878594       0.00000000
Si      -2.69387732       2.71239417       0.07089572       0.00000000
