10
Lattice="16.290000149 0.0 0.0 0.0 16.290000149 0.0 0.0 0.0 29.1751946751" Properties=species:S:1:pos:R:3:initial_magmoms:R:1 pbc="T T T"
Si       0.52115946      -0.72720190       2.19639618       0.00000000
Si      -2.01003941       1.36878355       0.12819581       0.00000000
Si       1.14362969       2.07982577      -0.56095147       0.00000000
Si      -1.24276411      -1.57275064      -1.39013968       0.00000000
Si       2.18092151      -1.39113343      -1.01518007       0.00000000
H       -1.05272497       1.13669992      -2.36467870       0.00000000
H       -1.54334719       2.65245185      -0.51961022       0.00000000
H       -2.68654682      -1.28503666      -0.95618783       0.00000000
Si      -0.02096523       2.24621183      -2.57853288       0.00000000
H        3.37452240      -1.02636775      -0.11862634       0.00000000
