10
Lattice="16.290000149 0.0 0.0 0.0 16.290000149 0.0 0.0 0.0 29.1751946751" Properties=species:S:1:pos:R:3:initial_magmoms:R:1 pbc="T T T"
Si      -1.39237147       1.35319402       1.31311716       0.00000000
Si       1.33998283       1.34871427      -1.37245951       0.00000000
Si      -1.39988116      -1.37096641      -1.31343809       0.00000000
Si       1.35249355      -1.31070970       1.42587929       0.00000000
Si       2.58492980      -2.74057424       0.00991957       0.00000000
Si       2.68382639       2.67569768       0.03454343       0.00000000
Si      -2.89334838      -0.00806355       2.47507764       0.00000000
Si      -0.05374071       2.64113030       2.74354778       0.00000000
Si       2.66400146      -0.02189376      -2.74547334       0.00000000
Si      -2.73406475       2.69992091      -0.07028304       0.00000000
