10
Lattice="16.290000149 0.0 0.0 0.0 16.290000149 0.0 0.0 0.0 29.1751946751" Properties=species:S:1:pos:R:3:initial_magmoms:R:1 pbc="T T T"
Si      -1.35995437      -1.36254448       1.33257702       0.00000000
Si       1.33406956      -1.44186049      -1.28872670       0.00000000
Si      -1.38435679       1.35562123      -1.34086277       0.00000000
Si       1.38258118       1.34342002       1.35545037       0.00000000
Si       2.68657940      -0.09715356      -2.60320926       0.00000000
Si       0.01829367      -2.70102863       2.68642275       0.00000000
Si      -2.71259453       0.00226431       2.68519739       0.00000000
Si      -0.03523527       2.75313082      -2.64996251       0.00000000
Si      -2.69185736      -2.71580366      -0.06030513       0.00000000
Si      -2.70806591       2.70712109       0.04385032       0.00000000
