10
Lattice="16.290000149 0.0 0.0 0.0 16.290000149 0.0 0.0 0.0 29.1751946751" Properties=species:S:1:pos:R:3:initial_magmoms:R:1 pbc="T T T"
Si       1.34009686       1.36301689       1.36501983       0.00000000
Si      -1.35131904       1.35842311      -1.35973912       0.00000000
Si      -1.35870330      -1.35216775       1.36224819       0.00000000
Si       1.36752922      -1.35415513      -1.35259120       0.00000000
Si      -2.68137667       2.70905960       0.03130498       0.00000000
Si       2.70558983       0.00579924       2.69450428       0.00000000
Si       2.70806591       2.70754463       0.02240655       0.00000000
Si       0.00645084      -2.70912476      -2.70661199       0.00000000
Si      -2.71046054      -2.70531290       0.00107948       0.00000000
Si       2.71630865      -2.71490771       0.01237028       0.00000000
