10
Lattice="16.290000149 0.0 0.0 0.0 16.290000149 0.0 0.0 0.0 29.1751946751" Properties=species:S:1:pos:R:3:initial_magmoms:R:1 pbc="T T T"
Si       0.45256878       2.20804436      -0.61279579       0.00000000
Si       1.06448635       0.09391185       2.10490277       0.00000000
Si      -0.42031458      -1.81143173      -1.48834338       0.00000000
Si      -2.31099065       0.16886214       0.59062264       0.00000000
H        2.73662229       1.01766889      -0.78466686       0.00000000
H       -0.08009793      -2.93733138       1.03294777       0.00000000
H        1.80807599       2.78632308      -0.33595237       0.00000000
Si      -1.27369882      -3.30209706       0.13639404       0.00000000
Si      -2.10084476       2.03393684       2.01384699       0.00000000
Si      -1.98529490      -0.73635688      -2.85242961       0.00000000
