10
Lattice="16.290000149 0.0 0.0 0.0 16.290000149 0.0 0.0 0.0 29.1751946751" Properties=species:S:1:pos:R:3:initial_magmoms:R:1 pbc="T T T"
Si       0.89155171      -0.76258378      -0.96940419       0.00000000
Si      -1.06323202       1.67681117       0.81880592       0.00000000
Si      -1.90470827      -0.31607487       1.91489931       0.00000000
Si       2.19426302      -1.82061929       0.63500832       0.00000000
Si      -1.31549896       2.19970388      -1.47979505       0.00000000
Si      -0.67728934      -1.92681380      -2.28981515       0.00000000
Si       2.06734763       0.86074732      -2.13679126       0.00000000
Si       0.88431895       2.51445926       1.88001745       0.00000000
Si      -3.20460141      -1.76862161       0.54426326       0.00000000
Si      -0.51904827      -1.66493576       3.30088153       0.00000000
