10
Lattice="16.290000149 0.0 0.0 0.0 16.290000149 0.0 0.0 0.0 29.1751946751" Properties=species:S:1:pos:R:3:initial_magmoms:R:1 pbc="T T T"
Si      -1.25180506       1.34149129       1.48749672       0.00000000
Si       1.35972631      -1.38064153       1.39991337       0.00000000
Si      -1.44783892      -1.44768254      -1.26935437       0.00000000
Si       1.52471143       1.37047120      -1.28452547       0.00000000
H       -0.64026217       1.15601334      -2.73097327       0.00000000
Si      -0.04069242      -2.62222413      -2.74503572       0.00000000
Si      -2.88745628       2.51761301       0.27202952       0.00000000
Si      -2.58789784      -0.06377535       2.84051738       0.00000000
Si       0.13180239       2.62372607       2.86212744       0.00000000
Si       3.72866700       0.99500298      -0.47774381       0.00000000
