10
Lattice="16.290000149 0.0 0.0 0.0 16.290000149 0.0 0.0 0.0 29.1751946751" Properties=species:S:1:pos:R:3:initial_magmoms:R:1 pbc="T T T"
Si      -1.34514513       1.36366361      -1.35346646       0.00000000
Si       1.35690814       1.36264059       1.35011131       0.00000000
Si      -1.37564816      -1.34811154       1.35069481       0.00000000
Si       1.31678587      -1.37093383      -1.38952700       0.00000000
Si      -2.66153353      -0.01795158      -2.71492692       0.00000000
Si       0.01321119      -2.69710274       2.68096699       0.00000000
Si       2.70365132      -0.01076769      -2.69359985       0.00000000
Si      -0.02754639       2.71740008       2.68452636       0.00000000
Si      -2.69031988      -2.71410950      -0.04335434       0.00000000
Si       2.69912270      -2.71562447      -0.05225277       0.00000000
