10
Lattice="10.86 0.0 0.0 0.0 10.86 0.0 0.0 0.0 10.86" Properties=species:S:1:pos:R:3:initial_magmoms:R:1 pbc="T T T"
Si      -1.27511604       1.36649208      -1.02915876       0.00000000
Si       1.43988396      -1.34850792      -1.02915876       0.00000000
Si       1.43988396       1.36649208       1.68584124       0.00000000
Si      -2.63261604       0.00899208      -2.38665876       0.00000000
Si       0.08238396      -2.70600792      -2.38665876       0.00000000
Si       0.08238396       2.72399208      -2.38665876       0.00000000
Si      -2.48389920       2.60678010       0.56907486       0.00000000
Si       2.79738396       0.00899208      -2.38665876       0.00000000
Si       2.79738396      -2.70600792       0.32834124       0.00000000
Si       2.79738396       2.72399208       0.32834124       0.00000000
