10
Lattice="10.86 0.0 0.0 0.0 10.86 0.0 0.0 0.0 10.86" Properties=species:S:1:pos:R:3:initial_magmoms:R:1 pbc="T T T"
Si       1.35750000      -1.35750000      -1.35750000       0.00000000
Si       1.35750000       1.35750000       1.35750000       0.00000000
Si      -1.35750000      -1.35750000       1.35750000       0.00000000
Si      -1.35750000       1.35750000      -1.35750000       0.00000000
Si      -0.14511132       2.61709710       2.58596148       0.00000000
Si      -0.01653978      -2.76287088      -2.54807094       0.00000000
Si       2.71500000      -2.71500000       0.00000000       0.00000000
Si      -2.71500000      -2.71500000       0.00000000       0.00000000
Si       2.71500000       0.00000000      -2.71500000       0.00000000
Si       2.71500000       0.00000000       2.71500000       0.00000000
