10
Lattice="16.290000149 0.0 0.0 0.0 16.290000149 0.0 0.0 0.0 29.1751946751" Properties=species:S:1:pos:R:3:initial_magmoms:R:1 pbc="T T T"
Si      -0.43284159       0.25260903      -2.28438040       0.00000000
Si       0.80762563       1.86106736       1.17886109       0.00000000
Si      -1.87212827      -0.80309701       1.19802919       0.00000000
Si       1.63103626      -1.73553662       0.08468917       0.00000000
Si       2.18157311       0.59429179       2.59613369       0.00000000
Si      -0.67411279      -2.20094192       2.63952596       0.00000000
Si      -2.13982184       1.89657956      -2.17920382       0.00000000
Si      -0.48431799      -2.04015962      -2.95611008       0.00000000
Si       1.71367544      -2.42507603      -2.14559400       0.00000000
Si       0.63860059      -3.52189477       1.23456237       0.00000000
