10
Lattice="16.290000149 0.0 0.0 0.0 16.290000149 0.0 0.0 0.0 29.1751946751" Properties=species:S:1:pos:R:3:initial_magmoms:R:1 pbc="T T T"
Si      -1.36757809      -1.35755974      -1.32939692       0.00000000
Si      -1.43741332       1.33431391       1.28178300       0.00000000
Si       1.35301483       1.35202114      -1.36172304       0.00000000
Si       1.36317979      -1.32610375       1.38051186       0.00000000
Si      -0.08689086       2.67683798       2.59422914       0.00000000
Si      -0.09350460      -2.62453079       2.68344688       0.00000000
Si       0.00320913      -2.71419095      -2.66226569       0.00000000
Si      -2.71072118       0.02564046      -2.67291464       0.00000000
Si       2.73144207      -0.01412343      -2.67326474       0.00000000
Si       2.73022032       2.69118947      -0.02847499       0.00000000
