10
Lattice="16.290000149 0.0 0.0 0.0 16.290000149 0.0 0.0 0.0 29.1751946751" Properties=species:S:1:pos:R:3:initial_magmoms:R:1 pbc="T T T"
Si       1.31023729       1.35980776       1.34655194       0.00000000
Si      -1.37394748       1.26677557      -1.41727261       0.00000000
Si       1.29011914      -1.44969598      -1.32584922       0.00000000
Si      -1.42749271      -1.38955330       1.28289166       0.00000000
Si      -2.18157311      -0.59429179      -2.59613369       0.00000000
Si      -0.55053685      -2.32982840      -2.51144452       0.00000000
Si       2.61798221       2.64955223      -0.12448180       0.00000000
Si       2.62764218      -0.03274290       2.68721048       0.00000000
Si      -0.10873575       2.69143382       2.64776562       0.00000000
Si       2.53509869      -2.82191673       0.09000548       0.00000000
