10
Lattice="16.290000149 0.0 0.0 0.0 16.290000149 0.0 0.0 0.0 29.1751946751" Properties=species:S:1:pos:R:3:initial_magmoms:R:1 pbc="T T T"
Si       1.38377035      -1.34374582      -1.33505691       0.00000000
Si      -1.29705868       1.30336291      -1.46080200       0.00000000
Si       1.38875509       1.35729910       1.33059310       0.00000000
Si      -1.34892604      -1.39121488       1.34535575       0.00000000
Si      -2.77861791       0.05238864       2.46647096       0.00000000
Si      -2.65934252       2.67317273      -0.19929575       0.00000000
Si       2.71052570      -0.01778868       2.66541661       0.00000000
Si       0.01770723      -2.68315850      -2.70675786       0.00000000
Si      -2.70928766      -2.69891093      -0.04382114       0.00000000
Si       2.72749989       0.02839347      -2.69794695       0.00000000
