10
Lattice="16.290000149 0.0 0.0 0.0 16.290000149 0.0 0.0 0.0 29.1751946751" Properties=species:S:1:pos:R:3:initial_magmoms:R:1 pbc="T T T"
Si      -1.43974967       1.38717496      -1.22691613       0.00000000
Si      -1.30076339      -1.29307089       1.46877850       0.00000000
Si       1.36276241       1.39624849       1.31356646       0.00000000
Si       1.43522522      -1.29466894      -1.35631104       0.00000000
Si      -2.62369059      -2.63734744       0.13820873       0.00000000
Si      -0.12930061       2.73168642      -2.58531816       0.00000000
Si       0.10015920      -2.53176641      -2.82000430       0.00000000
Si       2.70796130      -2.67755474       0.02647065       0.00000000
Si       2.65490477       0.04095306       2.74364698       0.00000000
Si       0.01081148       2.72179838       2.71896476       0.00000000
