10
Lattice="16.290000149 0.0 0.0 0.0 16.290000149 0.0 0.0 0.0 29.1751946751" Properties=species:S:1:pos:R:3:initial_magmoms:R:1 pbc="T T T"
Si      -1.41214753      -1.28484770       1.38054104       0.00000000
Si       1.32248737      -1.39508213      -1.36443633       0.00000000
Si       1.40014180       1.36990756       1.31475097       0.00000000
Si      -1.34850250       1.33335280      -1.40639026       0.00000000
Si       0.00842193       2.72334593       2.62821824       0.00000000
Si      -2.64277559      -2.71793765      -0.04510485       0.00000000
Si       2.58382208      -2.78664888       0.06657779       0.00000000
Si       2.68943015      -0.03556107      -2.74028016       0.00000000
Si      -2.71823087       2.72039744      -0.09522784       0.00000000
Si       2.74001061       2.71862183      -0.05730008       0.00000000
