10
Lattice="16.290000149 0.0 0.0 0.0 16.290000149 0.0 0.0 0.0 29.1751946751" Properties=species:S:1:pos:R:3:initial_magmoms:R:1 pbc="T T T"
Si       1.74483821       0.32243775      -1.49417842       0.00000000
Si      -1.91839187       1.05750120      -0.78049481       0.00000000
Si       0.64011556       0.67897535       2.14598144       0.00000000
Si      -0.04603554      -2.14590453       0.97938211       0.00000000
Si       1.85981303      -1.98295565      -1.72717152       0.00000000
Si      -0.60101956      -1.10914376       2.98876529       0.00000000
H        1.32255253       2.98741661       0.00916101       0.00000000
Si      -0.75953755       2.50057367      -2.28208373       0.00000000
Si      -2.88798897       1.45956121       1.37158425       0.00000000
Si       2.14830893      -2.86921311       0.51368765       0.00000000
