10
Lattice="16.290000149 0.0 0.0 0.0 16.290000149 0.0 0.0 0.0 29.1751946751" Properties=species:S:1:pos:R:3:initial_magmoms:R:1 pbc="T T T"
Si       0.65625895      -0.43414479       2.12952372       0.00000000
Si      -1.07978266      -1.75400948      -1.06425275       0.00000000
Si      -1.70186519       1.60117669      -0.01925563       0.00000000
Si       1.79028731       0.57573748      -1.44554337       0.00000000
Si      -0.31343589       3.03622797      -1.19950895       0.00000000
H        3.08591247       1.11431746      -0.50939890       0.00000000
H       -0.55099297      -3.03055905       1.32922187       0.00000000
Si      -1.99506890      -0.71332282      -2.90500331       0.00000000
Si      -1.25845138      -1.21481047       3.24815028       0.00000000
Si       0.76484809       1.92122633      -3.05980689       0.00000000
