10
Lattice="16.290000149 0.0 0.0 0.0 16.290000149 0.0 0.0 0.0 29.1751946751" Properties=species:S:1:pos:R:3:initial_magmoms:R:1 pbc="T T T"
Si      -1.48781458       1.80004502      -0.11655490       0.00000000
Si       1.12534579      -1.11576727      -1.75331250       0.00000000
Si      -1.65910394      -1.52404354       0.73352274       0.00000000
Si       1.86285926       0.83660554       1.25479595       0.00000000
H       -0.74666845       0.55452790       2.49964315       0.00000000
H       -1.40002777       0.97389766       2.45777675       0.00000000
Si       2.46804905      -2.53109135      -0.38388721       0.00000000
H        1.36612828       3.20913003      -0.96715770       0.00000000
H        0.79762357       3.33702282       1.36303592       0.00000000
Si       2.55164933       2.69873174      -0.16670706       0.00000000
