10
Lattice="16.290000149 0.0 0.0 0.0 16.290000149 0.0 0.0 0.0 29.1751946751" Properties=species:S:1:pos:R:3:initial_magmoms:R:1 pbc="T T T"
Si       1.36534636       1.35446464       1.34722296       0.00000000
Si       1.37028223      -1.36326124      -1.33575711       0.00000000
Si      -1.34760655      -1.34861653       1.37814867       0.00000000
Si      -1.34798122       1.36137160      -1.36531159       0.00000000
Si      -0.00923643       2.71814942       2.68017926       0.00000000
Si       2.72100017       0.01236411      -2.68324265       0.00000000
Si       2.71612946      -0.02223585       2.68934027       0.00000000
Si      -2.69576696      -2.71031393       0.02797901       0.00000000
Si       0.02378340      -2.72031599      -2.69765520       0.00000000
Si      -2.70765866       0.00679293      -2.71836959       0.00000000
