10
Lattice="16.290000149 0.0 0.0 0.0 16.290000149 0.0 0.0 0.0 29.1751946751" Properties=species:S:1:pos:R:3:initial_magmoms:R:1 pbc="T T T"
Si      -1.36995643      -1.34856766      -1.33648649       0.00000000
Si      -1.36590022       1.34635222       1.34996543       0.00000000
Si       1.32504490      -1.38399841       1.35956407       0.00000000
Si       1.38430971       1.33330393      -1.36729550       0.00000000
Si       0.07273485      -2.68156534      -2.61748177       0.00000000
Si       2.69600480      -0.01523115       2.68376781       0.00000000
Si      -0.00658116       2.70969491       2.68245492       0.00000000
Si      -2.69601131       2.71205696      -0.02622850       0.00000000
Si       0.05488101       2.74387134      -2.67714504       0.00000000
Si      -2.72145629      -0.03152115       2.70553250       0.00000000
