10
Lattice="16.290000149 0.0 0.0 0.0 16.290000149 0.0 0.0 0.0 29.1751946751" Properties=species:S:1:pos:R:3:initial_magmoms:R:1 pbc="T T T"
Si      -1.30556206      -1.35286822       1.43101121       0.00000000
Si       1.35990550      -1.44632395      -1.29890009       0.00000000
Si       1.39020164       1.29557629       1.42555544       0.00000000
Si      -1.30087054       1.52759476      -1.31661235       0.00000000
Si       2.70029558       0.01756062      -2.53780606       0.00000000
Si      -2.53203617       2.72924650       0.27870188       0.00000000
Si      -2.65248443      -2.68006340       0.03682785       0.00000000
Si       2.79961572       2.68903919       0.16696380       0.00000000
Si      -2.64820016      -0.04737132       2.85338947       0.00000000
Si       0.19181361       2.83482753      -2.67951115       0.00000000
