10
Lattice="16.290000149 0.0 0.0 0.0 16.290000149 0.0 0.0 0.0 29.1751946751" Properties=species:S:1:pos:R:3:initial_magmoms:R:1 pbc="T T T"
Si      -1.35062020      -1.38443824       1.35492522       0.00000000
Si       1.38592063      -1.35022924      -1.35393326       0.00000000
Si       1.40934565       1.36176256       1.32006086       0.00000000
Si      -1.33201702       1.31580847      -1.44192565       0.00000000
Si      -2.69000030      -2.67177179      -0.07585551       0.00000000
H       -1.10983771       2.94045906       2.14108001       0.00000000
Si       2.70058880      -0.05346378       2.67810782       0.00000000
Si       0.07568334       2.43006077       2.94153065       0.00000000
Si       2.72743472       2.68923467      -0.12186479       0.00000000
Si       0.04158837      -2.67649589      -2.76137383       0.00000000
