10
Lattice="16.290000149 0.0 0.0 0.0 16.290000149 0.0 0.0 0.0 29.1751946751" Properties=species:S:1:pos:R:3:initial_magmoms:R:1 pbc="T T T"
Si      -1.36495540      -1.34829562       1.34836080       0.00000000
Si      -1.36181143       1.36547668      -1.33666154       0.00000000
Si       1.36089919       1.34291503       1.36297757       0.00000000
Si       1.36210465      -1.36282467      -1.34520988       0.00000000
Si       0.01063737      -2.69428457       2.68464306       0.00000000
Si       2.71239905       0.02586852      -2.67904143       0.00000000
Si       0.00878031       2.72300384      -2.67530700       0.00000000
Si      -2.74805787       0.01591533      -2.66098198       0.00000000
Si       0.00094482       2.69519681       2.71527702       0.00000000
Si      -2.71630865      -2.71691138      -0.00288834       0.00000000
