10
Lattice="16.290000149 0.0 0.0 0.0 16.290000149 0.0 0.0 0.0 29.1751946751" Properties=species:S:1:pos:R:3:initial_magmoms:R:1 pbc="T T T"
Si       1.18552105      -0.51039828       0.80045064       0.00000000
H       -0.80772337       0.75235366      -1.65096592       0.00000000
H        0.63149815       1.66268774      -1.10436864       0.00000000
H       -0.56850472       0.12789279       2.33019362       0.00000000
Si      -1.88206517       0.58741741       1.72661720       0.00000000
Si      -1.65187118      -0.18104706      -2.46189045       0.00000000
Si       2.51918336      -1.57869649      -0.82101915       0.00000000
Si      -1.61288920       2.61689078       0.52862535       0.00000000
Si       0.49673097      -2.37252449       2.22195365       0.00000000
Si      -2.85394287      -1.40908501       0.85060280       0.00000000
