10
Lattice="16.290000149 0.0 0.0 0.0 16.290000149 0.0 0.0 0.0 29.1751946751" Properties=species:S:1:pos:R:3:initial_magmoms:R:1 pbc="T T T"
Si      -1.31477569       1.36875097       1.32537162       0.00000000
Si       1.58631044      -1.25600788       1.19374160       0.00000000
Si       0.65662384       1.72532279      -1.53414844       0.00000000
Si      -1.29894181      -2.03921480      -0.47540980       0.00000000
Si       0.24975014      -2.65760438       2.55437874       0.00000000
Si       0.14435547       0.77747284      -3.61150982       0.00000000
Si       0.19689397       2.74639629       2.49087309       0.00000000
Si      -2.62522475       0.02423952       2.68377364       0.00000000
Si      -2.45066111       2.85821085      -0.07209191       0.00000000
Si      -0.42865181      -2.83686280      -2.52105775       0.00000000
