10
Lattice="16.290000149 0.0 0.0 0.0 16.290000149 0.0 0.0 0.0 29.1751946751" Properties=species:S:1:pos:R:3:initial_magmoms:R:1 pbc="T T T"
Si      -1.31916421      -1.34154667      -1.39364945       0.00000000
Si       1.35477415       1.31408173      -1.40110371       0.00000000
Si      -1.38013768       1.35883036       1.33496938       0.00000000
Si       1.35130438      -1.36827856       1.35568377       0.00000000
Si       2.69690726       2.68408703      -0.03760683       0.00000000
Si      -2.69526523      -2.70058880      -0.03040055       0.00000000
Si      -0.02046024       2.71340903       2.68802739       0.00000000
Si       0.10355553      -2.72442107      -2.67577380       0.00000000
Si       2.69780321      -0.01122381       2.71758186       0.00000000
Si      -2.71099323       0.00092853       2.71892392       0.00000000
