10
Lattice="16.290000149 0.0 0.0 0.0 16.290000149 0.0 0.0 0.0 29.1751946751" Properties=species:S:1:pos:R:3:initial_magmoms:R:1 pbc="T T T"
Si      -1.44593299       1.19418733       1.35370102       0.00000000
Si      -1.35498592      -1.34508160      -1.34427627       0.00000000
Si       1.28081755      -1.49312512       1.33930715       0.00000000
Si       1.31118211       1.36788760      -1.48329607       0.00000000
Si       2.16285590      -0.50441985      -2.60050180       0.00000000
Si       0.36766530      -2.10279467      -2.72184144       0.00000000
Si      -0.01930365       2.55360413       2.63400951       0.00000000
Si      -2.79878655       2.43631613      -0.10823997       0.00000000
Si       2.69387732      -0.19829817       2.68254245       0.00000000
Si      -2.78632308      -0.26969724       2.59260699       0.00000000
