10
Lattice="16.290000149 0.0 0.0 0.0 16.290000149 0.0 0.0 0.0 29.1751946751" Properties=species:S:1:pos:R:3:initial_magmoms:R:1 pbc="T T T"
Si       1.42096042       1.30960198       1.31317551       0.00000000
Si       1.37898109      -1.34775316      -1.32026508       0.00000000
Si      -1.34850250      -1.35821134       1.35297048       0.00000000
Si      -1.36259335       1.39413079      -1.30468553       0.00000000
Si       0.05867658       2.67941180       2.57468175       0.00000000
Si       0.00858483      -2.70791930      -2.64922438       0.00000000
Si       2.73036692       0.04417848      -2.64633603       0.00000000
Si      -2.71694396       0.04207707      -2.66667114       0.00000000
Si       0.01076769       2.73779516      -2.64665696       0.00000000
Si       2.73572634      -2.67691943       0.06721965       0.00000000
