10
Lattice="16.290000149 0.0 0.0 0.0 16.290000149 0.0 0.0 0.0 29.1751946751" Properties=species:S:1:pos:R:3:initial_magmoms:R:1 pbc="T T T"
H       -1.13168260       0.06317262       1.00409350       0.00000000
Si       0.22323816      -2.13516290      -0.91303772       0.00000000
Si       2.06410592       0.69364450       0.89909197       0.00000000
Si      -0.22644729       1.50954544      -1.84040046       0.00000000
H       -0.46198440       0.99523756       2.62220815       0.00000000
H       -2.06355206       1.82573435       1.44723553       0.00000000
Si       2.34830126      -1.55173654      -1.91613926       0.00000000
H        2.43608807      -2.37788390       0.65819239       0.00000000
Si       3.32017896       0.44476587      -1.04012487       0.00000000
Si       1.73064962       2.81525412       1.83036419       0.00000000
