10
Lattice="16.290000149 0.0 0.0 0.0 16.290000149 0.0 0.0 0.0 29.1751946751" Properties=species:S:1:pos:R:3:initial_magmoms:R:1 pbc="T T T"
Si       1.43875997      -1.34996860       1.28683031       0.00000000
Si      -1.25874460      -1.36705681      -1.45531706       0.00000000
Si       1.37845981       1.32760243      -1.38891432       0.00000000
Si      -1.43009911       1.28249542       1.41102912       0.00000000
Si       0.09016515      -2.76141567       2.59183677       0.00000000
Si      -2.69143382       2.67406217      -0.01998501       0.00000000
Si      -0.02958264       2.69823979       2.66923856       0.00000000
Si      -2.59564862      -2.81535186      -0.19955833       0.00000000
Si      -2.72624555      -0.30871179       2.68651028       0.00000000
Si       2.74983836       2.69916017      -0.05928400       0.00000000
