10
Lattice="16.290000149 0.0 0.0 0.0 16.290000149 0.0 0.0 0.0 29.1751946751" Properties=species:S:1:pos:R:3:initial_magmoms:R:1 pbc="T T T"
Si      -1.56452582       1.07476534      -1.36475726       0.00000000
Si       1.38543193      -1.47786139      -1.21441748       0.00000000
Si      -0.84414781      -1.48677202       1.63366503       0.00000000
Si       0.42316533       1.81635131       1.48323772       0.00000000
H        0.35865693      -1.11470842       2.51466838       0.00000000
Si      -1.88674854       1.99324442       2.07747809       0.00000000
Si      -0.25350498       2.56459988      -2.63504523       0.00000000
Si      -3.05258313       2.15050808       0.05986750       0.00000000
Si       2.69951366      -0.11841201      -2.59831366       0.00000000
Si      -0.11872152      -2.82095562      -2.51449333       0.00000000
