10
Lattice="16.290000149 0.0 0.0 0.0 16.290000149 0.0 0.0 0.0 29.1751946751" Properties=species:S:1:pos:R:3:initial_magmoms:R:1 pbc="T T T"
Si      -1.56568078       1.28397781      -1.12190294       0.00000000
Si      -1.38842929      -1.43505127       1.18025333       0.00000000
Si       1.56004444       1.12518289       1.46815415       0.00000000
Si       1.07828398      -1.11500164      -1.86029794       0.00000000
Si       2.10372320      -2.46049049      -0.24603442       0.00000000
Si       0.31343589      -3.03622797       1.19950895       0.00000000
Si       0.05457150       2.30609387      -2.51729415       0.00000000
Si       1.83418886       0.75502522      -3.14779928       0.00000000
Si      -2.97996231      -2.24754761      -0.38458742       0.00000000
Si      -3.45924669      -0.21711312      -1.44297595       0.00000000
