10
Lattice="16.290000149 0.0 0.0 0.0 16.290000149 0.0 0.0 0.0 29.1751946751" Properties=species:S:1:pos:R:3:initial_magmoms:R:1 pbc="T T T"
Si      -0.97419088       1.45995868       1.50587767       0.00000000
Si       1.56568078      -1.28397781       1.12190294       0.00000000
Si       1.62025228       1.02211606      -1.39539121       0.00000000
Si      -1.89356591      -1.50109093      -0.32107302       0.00000000
H       -0.38141406      -2.35501274      -2.03003922       0.00000000
H        0.76776400      -0.72666433      -3.15188381       0.00000000
H       -2.49438998      -1.59104431      -1.72130731       0.00000000
Si       0.17725149      -2.71902908       2.30215626       0.00000000
Si      -2.66730833       2.38723436       0.19661164       0.00000000
H       -2.13030848       2.64645713      -1.18786805       0.00000000
