10
Lattice="16.290000149 0.0 0.0 0.0 16.290000149 0.0 0.0 0.0 29.1751946751" Properties=species:S:1:pos:R:3:initial_magmoms:R:1 pbc="T T T"
Si       1.32925913      -1.35913987       1.36522406       0.00000000
Si      -1.34264299      -1.36153450      -1.35302883       0.00000000
Si      -1.32035827       1.33584517       1.40703211       0.00000000
Si       1.35014291       1.36568845      -1.36405705       0.00000000
Si       2.63990367       0.07024248       2.68831914       0.00000000
Si      -2.66063432       2.70179426       0.03191766       0.00000000
Si      -2.67988910       0.01347183      -2.70521158       0.00000000
Si      -2.69647232      -2.70958088       0.02013088       0.00000000
Si       2.70693702      -2.70443324       0.00738132       0.00000000
Si       0.02269686      -2.71145423      -2.70389869       0.00000000
