10
Lattice="16.290000149 0.0 0.0 0.0 16.290000149 0.0 0.0 0.0 29.1751946751" Properties=species:S:1:pos:R:3:initial_magmoms:R:1 pbc="T T T"
H        0.53699985       0.25922277      -1.38447969       0.00000000
Si       1.69311746      -0.92727568       1.30926604       0.00000000
Si      -0.85167379       1.87230746       1.11720573       0.00000000
Si      -1.79519060      -1.59837481      -0.12133963       0.00000000
H        1.82791721       2.00823122      -0.95510835       0.00000000
H       -1.06456780       1.08971956      -2.55945230       0.00000000
H       -0.13269834      -0.67284217      -3.00259434       0.00000000
Si      -2.16285590       0.50441985       2.60050180       0.00000000
Si       2.66730833      -2.38723436      -0.19661164       0.00000000
Si       0.43166871      -2.40920957       2.63956739       0.00000000
