10
Lattice="16.290000149 0.0 0.0 0.0 16.290000149 0.0 0.0 0.0 29.1751946751" Properties=species:S:1:pos:R:3:initial_magmoms:R:1 pbc="T T T"
H       -0.65335933       0.41936976      -0.04186640       0.00000000
Si       1.97874632       0.61708150       1.08412106       0.00000000
H       -1.80253739      -1.20897865       1.07997818       0.00000000
Si       0.74666845      -0.55452790      -2.49964315       0.00000000
Si       0.19912896       2.16815015       1.71462619       0.00000000
Si      -2.52178976      -1.28899513      -0.24454648       0.00000000
Si      -0.91243549      -2.07857144      -1.76612041       0.00000000
Si       2.60952770       0.28207764      -1.24484721       0.00000000
Si       1.22284144      -1.25294536       2.37162240       0.00000000
Si      -0.74114614       1.24551712      -2.61619806       0.00000000
