10
Lattice="16.290000149 0.0 0.0 0.0 16.290000149 0.0 0.0 0.0 29.1751946751" Properties=species:S:1:pos:R:3:initial_magmoms:R:1 pbc="T T T"
Si       0.74287288      -1.32670648       1.78563861       0.00000000
Si      -1.75197323       0.97155190       1.26862499       0.00000000
Si       1.39460320       1.82066816      -0.74840209       0.00000000
Si       0.10912671      -1.73442890      -1.80349383       0.00000000
H       -2.14596317      -0.25559010      -1.30757387       0.00000000
Si       2.88539886       0.55519579      -2.03114788       0.00000000
Si       2.73774630      -2.21446751       0.81381288       0.00000000
Si      -0.77149441      -3.17681556       1.72107391       0.00000000
Si      -2.78829417       0.58671694      -2.38772711       0.00000000
Si       1.45756405      -0.71480521      -3.43605020       0.00000000
