10
Lattice="16.290000149 0.0 0.0 0.0 16.290000149 0.0 0.0 0.0 29.1751946751" Properties=species:S:1:pos:R:3:initial_magmoms:R:1 pbc="T T T"
Si       1.57830553      -1.08647785       1.32221982       0.00000000
Si      -1.23168691      -1.13683024      -1.62456236       0.00000000
Si      -1.60047622      -0.07341903       1.79086097       0.00000000
Si       1.29614644       1.59120721      -1.27548116       0.00000000
H        0.93240703      -1.91387954       2.39872616       0.00000000
H       -0.50681448      -2.82421362       1.85212888       0.00000000
Si      -1.71545105       2.23197437       2.02385408       0.00000000
Si      -2.64590327      -2.46358559      -0.38540432       0.00000000
Si       2.81641071      -2.45270387      -0.09467351       0.00000000
Si       0.13059693      -2.50664006      -2.88606861       0.00000000
