10
Lattice="16.290000149 0.0 0.0 0.0 16.290000149 0.0 0.0 0.0 29.1751946751" Properties=species:S:1:pos:R:3:initial_magmoms:R:1 pbc="T T T"
Si       0.85496437      -1.83829394       1.12546231       0.00000000
Si      -1.72265123       0.75771307       1.37756517       0.00000000
Si      -1.07447212      -0.09462861      -2.10040979       0.00000000
Si       1.79519060       1.59837481       0.12133963       0.00000000
H        2.33219045       1.85759759      -1.26314005       0.00000000
H       -1.13898052      -3.02568834      -1.06897913       0.00000000
H        1.66249226       0.92553265      -2.88125470       0.00000000
Si      -0.36766530       2.10279467       2.72184144       0.00000000
Si       2.56893302      -2.28995048      -0.39634502       0.00000000
Si      -0.62635051       2.11423025      -2.71130919       0.00000000
