10
Lattice="16.290000149 0.0 0.0 0.0 16.290000149 0.0 0.0 0.0 29.1751946751" Properties=species:S:1:pos:R:3:initial_magmoms:R:1 pbc="T T T"
Si       1.31533606      -1.25999893       1.47537209       0.00000000
Si      -0.84706372      -1.94660615      -1.03512424       0.00000000
Si      -1.43391097       1.37197639       1.28486974       0.00000000
Si       1.21428919       1.43904232      -1.44220281       0.00000000
Si       2.58307274      -2.66020589       0.11613770       0.00000000
Si       2.61101009       2.75898846      -0.07536536       0.00000000
Si      -0.06260247       2.77741245       2.59908681       0.00000000
Si      -1.50332266      -1.51246135      -3.16464795       0.00000000
Si      -0.09501957      -2.66836718       2.73057941       0.00000000
Si       2.75763639       0.17376543      -2.63972785       0.00000000
