10
Lattice="16.290000149 0.0 0.0 0.0 16.290000149 0.0 0.0 0.0 29.1751946751" Properties=species:S:1:pos:R:3:initial_magmoms:R:1 pbc="T T T"
Si      -1.42969186       1.44360352       1.12111521       0.00000000
Si      -1.36036162      -1.30769605      -1.38917689       0.00000000
Si       1.34892604       1.39121488      -1.34535575       0.00000000
Si       1.33201702      -1.31580847       1.44192565       0.00000000
H       -0.58554406       2.37700424       1.93203974       0.00000000
Si      -2.70119153      -2.64106514      -0.01648398       0.00000000
Si       0.01295055      -2.66681963      -2.70979208       0.00000000
Si       2.71793765      -2.66603771       0.08799239       0.00000000
Si       2.73269639       0.04746906      -2.68041266       0.00000000
Si      -2.72463284       2.73763227      -0.30549346       0.00000000
