10
Lattice="16.290000149 0.0 0.0 0.0 16.290000149 0.0 0.0 0.0 29.1751946751" Properties=species:S:1:pos:R:3:initial_magmoms:R:1 pbc="T T T"
Si       1.37383345       1.38258118       1.31022882       0.00000000
Si       1.37055916      -1.33992419      -1.36525323       0.00000000
Si      -1.32445846       1.36441783      -1.39203606       0.00000000
Si      -1.36694278      -1.35952106       1.37584383       0.00000000
Si      -2.67472028      -2.67278177      -0.07037057       0.00000000
Si       2.67833666       0.00237834       2.68496399       0.00000000
Si      -2.68441283       2.71669961      -0.03973662       0.00000000
Si       2.70295085      -2.70598079       0.00691452       0.00000000
Si      -2.68943015       0.03556107       2.74028016       0.00000000
Si       0.05058045       2.75418291       2.68298008       0.00000000
