10
Lattice="16.290000149 0.0 0.0 0.0 16.290000149 0.0 0.0 0.0 29.1751946751" Properties=species:S:1:pos:R:3:initial_magmoms:R:1 pbc="T T T"
Si       1.35793441      -1.35721765      -1.34077525       0.00000000
Si       1.37380087       1.34710156       1.34267163       0.00000000
Si      -1.34345260      -1.35528403       1.36627437       0.00000000
Si      -1.32928030       1.37023336      -1.37213858       0.00000000
Si       0.00301365       2.70373277       2.67554040       0.00000000
Si       2.70801704       0.01664838      -2.67559875       0.00000000
Si       0.04566087      -2.70400970       2.69952241       0.00000000
Si       0.00224802      -2.72824923      -2.67877885       0.00000000
Si      -2.68828985       2.72523557      -0.01814697       0.00000000
Si      -2.70034445      -2.71792136       0.01668821       0.00000000
