10
Lattice="16.290000149 0.0 0.0 0.0 16.290000149 0.0 0.0 0.0 29.1751946751" Properties=species:S:1:pos:R:3:initial_magmoms:R:1 pbc="T T T"
Si       1.29458260       1.48709782      -1.27596897       0.00000000
Si       1.37199268      -1.35563752       1.35958741       0.00000000
Si      -1.38647449       1.37054287       1.34907267       0.00000000
Si      -1.17266824      -1.46505745      -1.45074823       0.00000000
Si       2.60828966       0.06659352      -2.57621054       0.00000000
Si      -2.52941674      -0.05445747      -2.76369034       0.00000000
Si      -2.65844006      -2.65722482      -0.00309257       0.00000000
Si       0.01721853      -2.66971925       2.76069113       0.00000000
Si       2.71412579       0.01436778       2.72308430       0.00000000
Si      -0.02459790       2.73773000       2.71223113       0.00000000
