10
Lattice="16.290000149 0.0 0.0 0.0 16.290000149 0.0 0.0 0.0 29.1751946751" Properties=species:S:1:pos:R:3:initial_magmoms:R:1 pbc="T T T"
Si      -1.38979765      -1.26548866      -1.38514138       0.00000000
Si       1.19801548      -1.39784491       1.44149677       0.00000000
Si      -1.42271974       1.38287440       1.28212435       0.00000000
Si       1.87212827       0.80309701      -1.19802919       0.00000000
Si       2.51072885      -2.71879777       0.03653318       0.00000000
Si       2.62620866       0.00783549       2.68099616       0.00000000
Si       2.67975389       2.66416436      -0.01916810       0.00000000
Si       3.50316453      -0.93243961      -1.11334002       0.00000000
Si      -2.72635796      -2.66708516      -0.02450425       0.00000000
Si      -0.10355553       2.72442107       2.67577380       0.00000000
