10
Lattice="16.290000149 0.0 0.0 0.0 16.290000149 0.0 0.0 0.0 29.1751946751" Properties=species:S:1:pos:R:3:initial_magmoms:R:1 pbc="T T T"
Si      -1.23116563       1.20165173       1.59531423       0.00000000
Si      -1.93513799      -0.84649357      -1.07942706       0.00000000
Si       1.30087054      -1.52759476       1.31661235       0.00000000
Si       1.49268415       1.30723276      -1.36289880       0.00000000
H       -0.86582980      -2.55254528      -1.86844657       0.00000000
Si      -2.65238669       2.53620153       0.34471660       0.00000000
Si       2.64831257      -0.26790534      -2.68313471       0.00000000
Si      -3.68580801       0.69090778      -0.62155710       0.00000000
Si       2.82775017       2.54433024       0.10079446       0.00000000
Si       2.69107219      -0.23201847       2.74216779       0.00000000
