10
Lattice="16.290000149 0.0 0.0 0.0 16.290000149 0.0 0.0 0.0 29.1751946751" Properties=species:S:1:pos:R:3:initial_magmoms:R:1 pbc="T T T"
H       -1.44143695       0.28953846       0.43987441       0.00000000
Si       0.47065068      -2.13034106       0.89246921       0.00000000
Si      -0.36440730       0.24731478      -2.35995232       0.00000000
Si       1.21288825       1.60515145       1.41135004       0.00000000
H        0.17529669       2.70972749      -0.98728859       0.00000000
H        1.52132148      -1.39515706      -2.09673372       0.00000000
H        0.41244651      -3.22061448      -0.15235287       0.00000000
Si      -0.79452847       2.97010686       1.49517038       0.00000000
Si       3.41441661       0.18230139       0.37282981       0.00000000
Si      -2.67142970       2.26224119       0.22164395       0.00000000
