10
Lattice="16.290000149 0.0 0.0 0.0 16.290000149 0.0 0.0 0.0 29.1751946751" Properties=species:S:1:pos:R:3:initial_magmoms:R:1 pbc="T T T"
Si      -1.34763913       1.34351776      -1.36353190       0.00000000
Si      -1.35674524      -1.36930483       1.34421792       0.00000000
Si       1.35816247       1.35092971       1.36394035       0.00000000
Si       1.34263810      -1.30549690      -1.42237827       0.00000000
Si       0.11616399       2.77661782      -2.57468759       0.00000000
Si      -2.76830634      -0.11240100      -2.59419413       0.00000000
Si      -2.70195716       2.67708233       0.03258869       0.00000000
Si       2.69298137      -2.68579748      -0.05957575       0.00000000
Si       0.00760743      -2.70783785       2.70769147       0.00000000
Si      -2.71199180      -0.01422117       2.70737054       0.00000000
