10
Lattice="16.290000149 0.0 0.0 0.0 16.290000149 0.0 0.0 0.0 29.1751946751" Properties=species:S:1:pos:R:3:initial_magmoms:R:1 pbc="T T T"
Si       1.34631313      -1.36092526       1.35475016       0.00000000
Si      -1.31430344      -1.38436657      -1.36242324       0.00000000
Si      -1.37986727       1.34816693       1.34045432       0.00000000
Si       1.32349084       1.38462395      -1.36172304       0.00000000
Si      -2.63217732       0.05060000      -2.63659152       0.00000000
Si       2.67777629      -0.01065366      -2.65217107       0.00000000
Si      -0.00890737       2.71693419       2.66465806       0.00000000
Si       2.66441849      -2.73093056      -0.03410580       0.00000000
Si       2.70320498       0.00171208       2.70433632       0.00000000
Si      -0.02902226      -2.70918341       2.70564920       0.00000000
