10
Lattice="16.290000149 0.0 0.0 0.0 16.290000149 0.0 0.0 0.0 29.1751946751" Properties=species:S:1:pos:R:3:initial_magmoms:R:1 pbc="T T T"
Si       1.37095990       1.36876726       1.32420374       0.00000000
Si       1.37986727      -1.34816693      -1.34045432       0.00000000
Si      -1.32504490       1.38399841      -1.35956407       0.00000000
Si      -1.35148357      -1.35186476       1.37275126       0.00000000
Si      -2.68436396      -2.70615998      -0.01018214       0.00000000
Si      -2.69500133       0.03543075      -2.69605056       0.00000000
Si       0.00562005       2.71868699       2.67507360       0.00000000
Si       2.69913899       0.00803097       2.69847211       0.00000000
Si       2.70335810       0.03645702      -2.70217736       0.00000000
Si      -2.69094512       2.73035063      -0.00959864       0.00000000
