10
Lattice="16.290000149 0.0 0.0 0.0 16.290000149 0.0 0.0 0.0 29.1751946751" Properties=species:S:1:pos:R:3:initial_magmoms:R:1 pbc="T T T"
Si       1.32035827      -1.33584517      -1.40703211       0.00000000
Si       1.39185671       1.37412667       1.31250448       0.00000000
Si      -1.34027605       1.36594909      -1.37511445       0.00000000
Si      -1.35503479      -1.34755768       1.39329060       0.00000000
Si      -0.01352070       2.69190623       2.62535907       0.00000000
Si       2.64961739      -2.69498504      -0.04180805       0.00000000
Si      -2.69936705      -2.67382433      -0.01414997       0.00000000
Si      -2.72404640       2.70969491      -0.04005754       0.00000000
Si       2.67050117       0.02984328      -2.77108917       0.00000000
Si       0.03671505      -2.70343955       2.74375201       0.00000000
