10
Lattice="16.290000149 0.0 0.0 0.0 16.290000149 0.0 0.0 0.0 29.1751946751" Properties=species:S:1:pos:R:3:initial_magmoms:R:1 pbc="T T T"
Si      -1.27729891      -0.02479338      -0.82408255       0.00000000
Si       2.29169351      -0.18992511      -0.89378209       0.00000000
Si       2.13739463       0.23555340       1.46424467       0.00000000
Si       1.43220052       1.88786441      -1.68775584       0.00000000
H        1.27628893       2.68553684      -0.41350003       0.00000000
Si       0.61059808      -1.13521427       2.74217655       0.00000000
Si      -2.65517554      -1.37372757       0.51844321       0.00000000
Si      -0.83849518      -2.57406957       1.46404044       0.00000000
Si      -0.69457303      -1.56217355      -2.56800064       0.00000000
Si      -2.08216827       2.24060807      -0.57200887       0.00000000
