10
Lattice="10.86 0.0 0.0 0.0 10.86 0.0 0.0 0.0 10.86" Properties=species:S:1:pos:R:3:initial_magmoms:R:1 pbc="T T T"
Si      -1.35750000       1.35750000       1.35750000       0.00000000
Si       1.35750000       1.35750000      -1.35750000       0.00000000
Si      -1.57686114      -1.33632300      -1.22467134       0.00000000
Si       1.54014348      -1.45071138       1.25734908       0.00000000
Si      -2.71500000      -2.71500000       0.00000000       0.00000000
Si       2.71500000       0.00000000      -2.71500000       0.00000000
Si      -2.71500000       0.00000000      -2.71500000       0.00000000
Si      -2.71500000       0.00000000       2.71500000       0.00000000
Si       2.71500000       2.71500000       0.00000000       0.00000000
Si       0.00000000       2.71500000       2.71500000       0.00000000
