10
Lattice="16.28999089631971 0.0 0.0 0.0 16.28999089631971 0.0 0.0 0.0 34.46413024517268" Properties=species:S:1:pos:R:3:initial_magmoms:R:1 pbc="T T T"
Si       1.35664749      -1.31833341       1.39598761       0.00000000
Si      -1.47064491      -1.34275212      -1.32069520       0.00000000
Si      -1.36995642       1.41239187       1.38424912       0.00000000
Si       1.44101340       1.16227521      -1.63469806       0.00000000
Si      -0.34458237       1.15336458      -3.35828465       0.00000000
Si       2.67568137       2.69498502      -0.19138287       0.00000000
Si      -0.01492164      -2.66628041       2.76235673       0.00000000
Si       2.76016131      -2.67460134      -0.04936300       0.00000000
Si       2.69876430       0.04882113       2.76280476       0.00000000
Si      -0.23306103      -2.64113028      -2.82136766       0.00000000
