10
Lattice="16.28999089631971 0.0 0.0 0.0 16.28999089631971 0.0 0.0 0.0 34.46413024517268" Properties=species:S:1:pos:R:3:initial_magmoms:R:1 pbc="T T T"
Si      -1.34223084      -1.36219793      -1.38911201       0.00000000
Si       1.36883241       1.35371203      -1.38883630       0.00000000
Si       1.23694857      -1.54096299       1.39628055       0.00000000
Si      -1.40245497       1.43426608       1.59372567       0.00000000
Si      -2.68587891       2.71057129      -0.02512436       0.00000000
Si      -2.72484459      -2.70322191      -0.01120085       0.00000000
Si       2.72833065       2.71860226      -0.00489391       0.00000000
Si      -2.70384678      -0.00830138      -2.75261716       0.00000000
Si       0.01181025       2.70819295      -2.75299626       0.00000000
Si       2.71541268      -2.74683024      -0.02105760       0.00000000
