10
Lattice="16.28999089631971 0.0 0.0 0.0 16.28999089631971 0.0 0.0 0.0 34.46413024517268" Properties=species:S:1:pos:R:3:initial_magmoms:R:1 pbc="T T T"
Si      -0.01989009      -0.43736044       2.30503125       0.00000000
Si      -1.99260909       1.29788294      -0.19627333       0.00000000
Si      -1.05065613      -1.66936403      -1.47968379       0.00000000
Si       2.04022476       1.24568978      -0.68235570       0.00000000
Si      -2.31757830       0.73618745      -2.69092633       0.00000000
Si       2.49583977      -2.72019935       0.79791399       0.00000000
Si      -1.26685701       3.59724902       0.04432090       0.00000000
Si       2.03913333       0.09565325       3.24035380       0.00000000
Si       3.71460870      -0.42544919      -0.83041368       0.00000000
Si       3.02335884       1.66655822       1.72058820       0.00000000
