10
Lattice="16.28999089631971 0.0 0.0 0.0 16.28999089631971 0.0 0.0 0.0 34.46413024517268" Properties=species:S:1:pos:R:3:initial_magmoms:R:1 pbc="T T T"
Si      -0.62843562      -2.16902979      -0.69272941       0.00000000
Si      -1.95194925       0.13637988       1.34234416       0.00000000
Si       1.88542089      -0.18821466       1.49646784       0.00000000
Si      -0.00768888       1.60202376      -1.83325150       0.00000000
Si      -1.40235723      -1.26297999       3.16284393       0.00000000
Si      -2.34481518      -1.69945425      -2.28300866       0.00000000
Si       3.37592331       1.53730359       0.60336387       0.00000000
Si       0.81731817      -0.31203495       3.66091982       0.00000000
Si      -2.13537465       2.52620433      -1.98224002       0.00000000
Si      -3.37646577       0.43557831      -1.85672159       0.00000000
