10
Lattice="16.28999089631971 0.0 0.0 0.0 16.28999089631971 0.0 0.0 0.0 34.46413024517268" Properties=species:S:1:pos:R:3:initial_magmoms:R:1 pbc="T T T"
Si      -1.00268208      -0.07626978       2.06771111       0.00000000
Si      -1.48439367      -0.33860394      -1.75615520       0.00000000
Si       2.18947374       0.01918962      -0.89217344       0.00000000
Si       0.36380457      -2.28525894       1.26717785       0.00000000
Si       2.22609366       2.36229435      -1.27679335       0.00000000
Si       0.80655048      -3.26076930      -0.95045232       0.00000000
Si       0.38257065       2.34760077      -2.75199680       0.00000000
Si       2.01142404      -1.79372448      -2.50899008       0.00000000
Si       2.37224754      -1.50060222       2.49241283       0.00000000
Si      -0.40659840       0.39423429      -3.72547117       0.00000000
