10
Lattice="16.28999089631971 0.0 0.0 0.0 16.28999089631971 0.0 0.0 0.0 34.46413024517268" Properties=species:S:1:pos:R:3:initial_magmoms:R:1 pbc="T T T"
Si       1.35454608      -1.35659862       1.36222997       0.00000000
Si      -1.36106208       1.35943308       1.36278140       0.00000000
Si       1.35402480       1.36296801      -1.37019464       0.00000000
Si      -1.35304740      -1.37108043      -1.38018580       0.00000000
Si       2.71528236      -2.71402803       0.00313624       0.00000000
Si      -2.71694394      -2.71463076       0.00344641       0.00000000
Si       2.71249677       0.00135207       2.71963497       0.00000000
Si      -0.00278559      -2.71334385       2.71932479       0.00000000
Si       2.71712313       2.71562445       0.00692729       0.00000000
Si      -0.00320913       2.71687878       2.71966943       0.00000000
