10
Lattice="16.28999089631971 0.0 0.0 0.0 16.28999089631971 0.0 0.0 0.0 34.46413024517268" Properties=species:S:1:pos:R:3:initial_magmoms:R:1 pbc="T T T"
Si       0.86933214      -0.19336230       2.14887419       0.00000000
Si      -2.25163638      -0.67991202       0.04604410       0.00000000
Si      -0.55213326       2.18110068      -0.71912894       0.00000000
Si       1.65205035      -0.96065388      -1.44549536       0.00000000
Si      -1.72990026       1.38337938      -2.60762648       0.00000000
Si      -3.38265108       1.13562477       1.02920290       0.00000000
Si       1.17441126       1.96836957       3.01588879       0.00000000
Si       1.42270344       3.48071688      -0.59519586       0.00000000
Si       3.12697953      -0.90712494       1.98933964       0.00000000
Si       3.51888435       0.52589007      -1.46107315       0.00000000
