10
Lattice="16.28999089631971 0.0 0.0 0.0 16.28999089631971 0.0 0.0 0.0 34.46413024517268" Properties=species:S:1:pos:R:3:initial_magmoms:R:1 pbc="T T T"
Si       1.36875096       1.34724816       1.38307734       0.00000000
Si      -1.34874684      -1.36718712       1.38500733       0.00000000
Si       1.34405532      -1.39662315      -1.40175691       0.00000000
Si      -1.36616085       1.34921925      -1.56201865       0.00000000
Si      -2.70441693       2.69174331       0.00123037       0.00000000
Si      -2.70650205      -2.71218726       0.02305307       0.00000000
Si       2.72324817       2.69596962       0.01367537       0.00000000
Si       0.01093059       2.70368208       2.74168858       0.00000000
Si      -2.70356985      -0.01107720       2.74210214       0.00000000
Si       2.72582199      -2.72093499       0.00988432       0.00000000
