10
Lattice="16.28999089631971 0.0 0.0 0.0 16.28999089631971 0.0 0.0 0.0 34.46413024517268" Properties=species:S:1:pos:R:3:initial_magmoms:R:1 pbc="T T T"
Si       1.35449721       1.34872146      -1.36940196       0.00000000
Si      -1.35782037       1.35643392       1.35861124       0.00000000
Si       1.35710361      -1.35909099       1.35885249       0.00000000
Si      -1.36875096      -1.34724816      -1.38307734       0.00000000
Si       2.59744050      -0.15858315      -2.78276639       0.00000000
Si      -2.71275741       2.71467216      -0.00161982       0.00000000
Si      -0.00016290      -2.71427238       2.71667105       0.00000000
Si      -2.71489140       0.00066789       2.71608516       0.00000000
Si      -0.00001629       2.71533842       2.71608516       0.00000000
Si       2.71505430       0.00061902       2.71649873       0.00000000
