10
Lattice="16.28999089631971 0.0 0.0 0.0 16.28999089631971 0.0 0.0 0.0 34.46413024517268" Properties=species:S:1:pos:R:3:initial_magmoms:R:1 pbc="T T T"
Si       1.35707103       1.35576603      -1.35747392       0.00000000
Si       1.35762489      -1.35775521       1.35723267       0.00000000
Si      -1.35742941      -1.35899325      -1.35706035       0.00000000
Si      -1.35830907       1.35763665       1.35795642       0.00000000
Si      -0.00171045       2.71308388       2.71525802       0.00000000
Si      -0.00260640      -2.71510317      -2.71415517       0.00000000
Si       2.71487511       2.71467053       0.00000000       0.00000000
Si       2.71472850      -2.71494027       0.00058589       0.00000000
Si      -2.71493701       2.71490673       0.00024125       0.00000000
Si      -2.71500706      -0.00161271       2.71484445       0.00000000
