10
Lattice="16.28999089631971 0.0 0.0 0.0 16.28999089631971 0.0 0.0 0.0 34.46413024517268" Properties=species:S:1:pos:R:3:initial_magmoms:R:1 pbc="T T T"
Si       0.81044379      -1.55764980       1.61657540       0.00000000
Si      -0.48151611      -1.52920746      -1.88143239       0.00000000
Si      -1.80618633       1.08709686       1.34134470       0.00000000
Si       2.15249544       1.29051009      -0.67666911       0.00000000
Si      -0.36830061       0.35442153      -3.38624055       0.00000000
Si       2.24191125      -2.72161917       0.04980070       0.00000000
Si       1.95216102      -0.01767465       3.06795176       0.00000000
Si      -3.38743382       1.42386003      -0.40864142       0.00000000
Si       1.94916366       0.96741423      -3.11893660       0.00000000
Si       1.61156970      -2.67548589      -2.24402970       0.00000000
