10
Lattice="16.28999089631971 0.0 0.0 0.0 16.28999089631971 0.0 0.0 0.0 34.46413024517268" Properties=species:S:1:pos:R:3:initial_magmoms:R:1 pbc="T T T"
Si      -0.98422551      -1.57090497       1.51976560       0.00000000
Si       2.26919700      -0.77475240      -0.02409044       0.00000000
Si       0.23628645       2.23704054       0.85188485       0.00000000
Si      -0.98313408      -0.42086844      -2.40294390       0.00000000
Si       0.69124986      -2.09200741      -2.55100188       0.00000000
Si      -3.04324893      -2.10391866       0.58444305       0.00000000
Si       2.24922546      -2.70762769       1.28689134       0.00000000
Si       2.83600755      -0.92906757      -2.27022246       0.00000000
Si      -0.73028070       3.63338676      -0.87762957       0.00000000
Si       2.63578716       2.66913279       0.76989464       0.00000000
