10
Lattice="16.28999089631971 0.0 0.0 0.0 16.28999089631971 0.0 0.0 0.0 34.46413024517268" Properties=species:S:1:pos:R:3:initial_magmoms:R:1 pbc="T T T"
Si      -0.56681055       0.15431517       2.24613202       0.00000000
Si       0.70853355       2.28012759      -0.29063617       0.00000000
Si       2.12680611      -1.09338643      -0.42976794       0.00000000
Si      -2.14475769      -1.16293984      -0.28077943       0.00000000
Si       0.86395644       1.85419296      -2.54927867       0.00000000
Si      -1.65252276      -1.41261830      -2.53828461       0.00000000
Si       2.57799024       1.96307532       1.20517684       0.00000000
Si       1.10793177       1.63608615       3.08781547       0.00000000
Si      -2.83600755       0.92906757       2.27022246       0.00000000
Si       2.01676716      -3.12524369       0.71475200       0.00000000
