10
Lattice="16.28999089631971 0.0 0.0 0.0 16.28999089631971 0.0 0.0 0.0 34.46413024517268" Properties=species:S:1:pos:R:3:initial_magmoms:R:1 pbc="T T T"
Si      -2.08546209       0.77890146      -0.70465400       0.00000000
Si       0.80521470      -1.72223974      -1.40410392       0.00000000
Si       1.73965797       1.62664935      -0.45316910       0.00000000
Si      -1.43174439      -0.68378578       2.10930934       0.00000000
Si       2.41909758      -2.87562061      -0.02667525       0.00000000
Si      -0.93213009      -3.37363849      -1.40203607       0.00000000
Si      -2.04296148       1.36467357      -2.94806335       0.00000000
Si       3.45719412      -1.15859432       1.20011061       0.00000000
Si       3.83126139       0.37538187      -0.59764282       0.00000000
Si       1.19858562      -0.73922065      -3.65288967       0.00000000
