10
Lattice="16.28999089631971 0.0 0.0 0.0 16.28999089631971 0.0 0.0 0.0 34.46413024517268" Properties=species:S:1:pos:R:3:initial_magmoms:R:1 pbc="T T T"
Si       1.35842310       1.34442999      -1.38804362       0.00000000
Si      -1.35949824      -1.36489023      -1.38394239       0.00000000
Si       1.36720341      -1.49739309       1.35588857       0.00000000
Si      -1.25876088       1.51661529       1.55130030       0.00000000
Si      -2.71068858       2.69425197      -0.01027032       0.00000000
Si       2.70363501       2.70762606      -0.01406137       0.00000000
Si      -2.72833065      -2.71860226       0.00489391       0.00000000
Si      -0.00073305       2.70485676      -2.74758539       0.00000000
Si       2.71471221      -0.01084914      -2.74813682       0.00000000
Si      -2.71652040      -0.01040931      -2.74810235       0.00000000
