10
Lattice="16.28999089631971 0.0 0.0 0.0 16.28999089631971 0.0 0.0 0.0 34.46413024517268" Properties=species:S:1:pos:R:3:initial_magmoms:R:1 pbc="T T T"
Si       1.30815216      -1.96211421       0.04769838       0.00000000
Si       0.82989405       1.93891725       1.07373058       0.00000000
Si      -2.39950071      -0.43209225       0.08199021       0.00000000
Si       0.38680605       0.75631212      -2.36251745       0.00000000
Si      -0.36659016      -3.44388519      -0.79398508       0.00000000
Si       0.90875394      -1.31807277      -3.33075326       0.00000000
Si       2.77821063      -1.63512504      -1.83494025       0.00000000
Si      -0.53312283       3.70017576       0.35746216       0.00000000
Si      -2.63578716      -2.66913279      -0.76989464       0.00000000
Si      -3.36606786       0.96425397      -1.64752420       0.00000000
