10
Lattice="16.28999089631971 0.0 0.0 0.0 16.28999089631971 0.0 0.0 0.0 34.46413024517268" Properties=species:S:1:pos:R:3:initial_magmoms:R:1 pbc="T T T"
Si       0.52194789      -2.07438489      -0.96823582       0.00000000
Si      -1.96721298       1.24071156      -0.58447751       0.00000000
Si       1.97770374       1.21981149      -0.81542178       0.00000000
Si      -0.38680605      -0.75631212       2.36251745       0.00000000
Si      -0.91865826       3.22540371       0.30152684       0.00000000
Si       2.39140458      -2.39143716       0.52757720       0.00000000
Si       0.44308800       1.18260513       3.43624803       0.00000000
Si       1.16758575       3.46138065      -0.83158546       0.00000000
Si       0.92134611      -2.71842633       2.41021583       0.00000000
Si      -3.75287391       0.20794185       0.71499325       0.00000000
