10
Lattice="16.28999089631971 0.0 0.0 0.0 16.28999089631971 0.0 0.0 0.0 34.46413024517268" Properties=species:S:1:pos:R:3:initial_magmoms:R:1 pbc="T T T"
Si       0.92220134       1.75831002      -1.24825845       0.00000000
Si      -1.38847000       1.29593466       1.44223505       0.00000000
Si       1.34873870      -1.40965515       1.44565734       0.00000000
Si      -1.14523098      -1.32418152      -1.76063696       0.00000000
Si      -2.63267481      -2.54544282      -0.07998784       0.00000000
Si      -2.72668440       2.58504381      -0.17018052       0.00000000
Si       2.67813301       2.66792733       0.10944435       0.00000000
Si      -0.86660845       3.39990219      -1.55633348       0.00000000
Si      -0.01397356       2.65901670       2.82290334       0.00000000
Si       2.70263317      -0.05879061       2.82583280       0.00000000
