10
Lattice="16.28999089631971 0.0 0.0 0.0 16.28999089631971 0.0 0.0 0.0 34.46413024517268" Properties=species:S:1:pos:R:3:initial_magmoms:R:1 pbc="T T T"
Si       1.35659862      -1.35739683       1.36302265       0.00000000
Si      -1.36117611       1.35918873       1.36285033       0.00000000
Si      -1.36964691      -1.36759437      -1.36515253       0.00000000
Si       1.38012138       1.35016407      -1.37855564       0.00000000
Si      -0.11318292       2.55704130      -2.73823182       0.00000000
Si       2.71073745      -2.71130760       0.00627248       0.00000000
Si      -2.71174743       2.71529865       0.00727194       0.00000000
Si      -2.71358820      -2.71435383       0.00348088       0.00000000
Si       2.71469592       2.71586880       0.00127517       0.00000000
Si       2.71324611       0.00096111       2.71966943       0.00000000
