10
Lattice="16.28999089631971 0.0 0.0 0.0 16.28999089631971 0.0 0.0 0.0 34.46413024517268" Properties=species:S:1:pos:R:3:initial_magmoms:R:1 pbc="T T T"
Si       1.35265644       1.35863487       1.34647986       0.00000000
Si      -1.35764118       1.35540945      -1.36033445       0.00000000
Si       1.35790182      -1.36011726      -1.35919713       0.00000000
Si      -1.35205371      -1.37072205       1.37811795       0.00000000
Si      -2.71070487       2.70699075      -0.00344641       0.00000000
Si       2.71459818       2.71104696      -0.00079268       0.00000000
Si       0.00099369       2.71155195      -2.71739480       0.00000000
Si      -2.71337643      -0.00250866      -2.71711908       0.00000000
Si       2.71542897      -0.00231318      -2.71715355       0.00000000
Si      -2.71417464      -2.71950147      -0.00120625       0.00000000
