10
Lattice="16.28999089631971 0.0 0.0 0.0 16.28999089631971 0.0 0.0 0.0 34.46413024517268" Properties=species:S:1:pos:R:3:initial_magmoms:R:1 pbc="T T T"
Si      -1.35777675      -1.35656441       1.35702589       0.00000000
Si       1.35730428      -1.35732353      -1.35743946       0.00000000
Si       1.35713649       1.35912357       1.35681910       0.00000000
Si      -1.35761385       1.35773892      -1.35781856       0.00000000
Si       0.00185148       2.71326240       2.71346588       0.00000000
Si       0.00003957      -2.71386182      -2.71453427       0.00000000
Si       2.71393222      -2.71459360       0.00027571       0.00000000
Si      -0.00016766       2.71578735      -2.71332803       0.00000000
Si       2.71464898       2.71454931       0.00006893       0.00000000
Si      -2.71528761      -0.00096111      -2.71401731       0.00000000
