10
Lattice="16.28999089631971 0.0 0.0 0.0 16.28999089631971 0.0 0.0 0.0 34.46413024517268" Properties=species:S:1:pos:R:3:initial_magmoms:R:1 pbc="T T T"
Si      -1.35528501       1.35413883       1.35664678       0.00000000
Si       1.35751249       1.35542574      -1.35675017       0.00000000
Si      -1.35713649      -1.35912357      -1.35681910       0.00000000
Si       1.35704008      -1.36060596       1.35833552       0.00000000
Si      -0.01118308       2.69874801       2.70970929       0.00000000
Si      -2.71510873       2.71164969       0.00031018       0.00000000
Si      -0.00017267       2.71342530      -2.71422409       0.00000000
Si      -2.71475035      -0.00138465      -2.71463766       0.00000000
Si       2.71536544      -0.00197109      -2.71415517       0.00000000
Si      -2.71491325      -2.71568798       0.00020678       0.00000000
