10
Lattice="16.28999089631971 0.0 0.0 0.0 16.28999089631971 0.0 0.0 0.0 34.46413024517268" Properties=species:S:1:pos:R:3:initial_magmoms:R:1 pbc="T T T"
Si      -1.63771515      -1.55512485      -0.74497706       0.00000000
Si      -1.17268452       2.05907229       0.47071135       0.00000000
Si       1.46992815       0.12658959      -1.92234133       0.00000000
Si       0.87741198      -0.91199565       2.09025067       0.00000000
Si       0.37494693       0.97606422       3.50814024       0.00000000
Si      -0.32210217      -3.48254136      -1.29405989       0.00000000
Si      -1.80437814       1.73506419       2.76947013       0.00000000
Si       0.07946262       0.04533507      -3.91464489       0.00000000
Si       0.21139533       3.99015472       0.59836656       0.00000000
Si      -2.70052362       2.74913298      -1.29516274       0.00000000
