10
Lattice="16.28999089631971 0.0 0.0 0.0 16.28999089631971 0.0 0.0 0.0 34.46413024517268" Properties=species:S:1:pos:R:3:initial_magmoms:R:1 pbc="T T T"
Si       1.34410193       1.34460918       1.35306251       0.00000000
Si       1.35528501      -1.35413883      -1.35664678       0.00000000
Si      -1.35982372       1.35751086      -1.35633660       0.00000000
Si      -1.36001920      -1.35635427       1.37374100       0.00000000
Si       2.66114191      -0.04691520       2.70412610       0.00000000
Si       2.71279750       0.00128691      -2.71339695       0.00000000
Si      -0.00185148      -2.71326240      -2.71346588       0.00000000
Si       2.71232509      -2.71474479       0.00168874       0.00000000
Si       2.71188526       2.71539639       0.00472159       0.00000000
Si      -0.00198127       2.71660185      -2.71322463       0.00000000
