10
Lattice="16.28999089631971 0.0 0.0 0.0 16.28999089631971 0.0 0.0 0.0 34.46413024517268" Properties=species:S:1:pos:R:3:initial_magmoms:R:1 pbc="T T T"
Si      -1.34410193      -1.34460918      -1.35306251       0.00000000
Si       1.31703998      -1.39152438       1.35106359       0.00000000
Si      -1.31752201       1.32160770       1.42423098       0.00000000
Si       1.36778333       1.37078721      -1.34834092       0.00000000
Si       0.54122873       2.23065486       2.51484899       0.00000000
Si       2.12463302       0.47105793       2.66993766       0.00000000
Si      -2.68594148       2.71052568       0.00589337       0.00000000
Si      -2.70412112      -2.70096345       0.02067849       0.00000000
Si       0.01118308      -2.69874801      -2.70970929       0.00000000
Si      -2.70392564       0.01290168      -2.70939911       0.00000000
