10
Lattice="16.28999089631971 0.0 0.0 0.0 16.28999089631971 0.0 0.0 0.0 34.46413024517268" Properties=species:S:1:pos:R:3:initial_magmoms:R:1 pbc="T T T"
Si      -1.60096491      -0.92871801      -1.37863491       0.00000000
Si       1.87303139      -1.47718602       0.25961844       0.00000000
Si      -1.35635427       0.06030232       2.02149469       0.00000000
Si       1.12024701       1.74535784      -1.37932419       0.00000000
Si       0.27139140       1.21436900       3.14099366       0.00000000
Si      -0.18117738      -2.21039892      -2.74482826       0.00000000
Si       2.54739829       0.50950885      -2.75668393       0.00000000
Si      -3.27324744      -1.95337530       0.00554873       0.00000000
Si       1.24573672      -3.46292073      -1.26269751       0.00000000
Si       2.03620180      -1.75558212       2.87107044       0.00000000
