10
Lattice="16.28999089631971 0.0 0.0 0.0 16.28999089631971 0.0 0.0 0.0 34.46413024517268" Properties=species:S:1:pos:R:3:initial_magmoms:R:1 pbc="T T T"
Si      -1.30815216       1.96211421      -0.04769838       0.00000000
Si       0.57876741      -0.89103042       2.13922422       0.00000000
Si      -1.67474232      -1.48177098      -0.84168346       0.00000000
Si       1.47005847       0.32698917      -1.88263863       0.00000000
Si      -0.39939822       0.64404144      -3.37845165       0.00000000
Si      -1.10793177      -1.63608615      -3.08781547       0.00000000
Si      -0.92134611       2.71842633      -2.41021583       0.00000000
Si      -0.99810459      -2.63834469       2.59404760       0.00000000
Si      -1.69471386      -3.41464627       0.46929832       0.00000000
Si       2.64662001      -1.57540590      -2.39808445       0.00000000
