10
Lattice="16.28999089631971 0.0 0.0 0.0 16.28999089631971 0.0 0.0 0.0 34.46413024517268" Properties=species:S:1:pos:R:3:initial_magmoms:R:1 pbc="T T T"
Si      -2.30299875       0.37212876      -0.45716694       0.00000000
Si       0.55311066      -1.97111606      -1.23881385       0.00000000
Si       1.26209611       1.94025303      -0.61470257       0.00000000
Si       0.06923250      -0.04326624       2.43540912       0.00000000
Si      -2.82781368       1.60821396       1.46665635       0.00000000
Si      -0.32368230       3.69209592      -0.55683726       0.00000000
Si       2.33993537      -3.11688692      -0.09639623       0.00000000
Si       0.14338458      -2.18884820       3.26558156       0.00000000
Si      -2.12020866       0.27235251       3.30790353       0.00000000
Si      -1.17136503      -3.64181588      -1.05770475       0.00000000
