10
Lattice="16.28999089631971 0.0 0.0 0.0 16.28999089631971 0.0 0.0 0.0 34.46413024517268" Properties=species:S:1:pos:R:3:initial_magmoms:R:1 pbc="T T T"
Si       0.07415208      -2.14558196       0.83017243       0.00000000
Si       1.86768175       1.13393061       0.93325470       0.00000000
Si      -2.18944116       0.31561875       0.87249441       0.00000000
Si      -0.06923250       0.04326624      -2.43540912       0.00000000
Si      -2.89704618       1.65148020      -0.96875278       0.00000000
Si       2.03960152      -2.88196883      -0.12927502       0.00000000
Si      -2.37223125       0.41539500      -2.89257607       0.00000000
Si       1.51506841       3.44823462       0.68666371       0.00000000
Si       1.19286361       1.98351927      -3.05011170       0.00000000
Si      -1.99912509      -3.28980527       0.48818468       0.00000000
