10
Lattice="16.28999089631971 0.0 0.0 0.0 16.28999089631971 0.0 0.0 0.0 34.46413024517268" Properties=species:S:1:pos:R:3:initial_magmoms:R:1 pbc="T T T"
Si       1.35711990       1.35612621       1.35730160       0.00000000
Si       1.35747828      -1.35690813      -1.35764624       0.00000000
Si      -1.35726651       1.35788553      -1.35737053       0.00000000
Si      -1.35747828      -1.35773892       1.35733606       0.00000000
Si       2.71492447       0.00114030      -2.71315571       0.00000000
Si       0.00074934       2.71422351      -2.71391392       0.00000000
Si      -0.00019548      -2.71560816      -2.71384499       0.00000000
Si      -2.71503801      -2.71454931       0.00013786       0.00000000
Si       2.71509213      -2.71464705       0.00017232       0.00000000
Si       2.71496234       2.71521720       0.00041357       0.00000000
