10
Lattice="16.28999089631971 0.0 0.0 0.0 16.28999089631971 0.0 0.0 0.0 34.46413024517268" Properties=species:S:1:pos:R:3:initial_magmoms:R:1 pbc="T T T"
Si       2.24255308       0.72228231       0.46271567       0.00000000
Si      -0.80277187      -0.07933230       2.29955145       0.00000000
Si       0.98050976      -1.71020565      -1.48578395       0.00000000
Si      -1.76415880       1.31670441      -1.20479774       0.00000000
Si       2.09732773      -0.06203232      -2.87882487       0.00000000
Si      -1.45368769       2.14441560       2.56558022       0.00000000
Si       1.96897882       2.63767680       1.75622413       0.00000000
Si      -2.65059544      -1.49081193       2.18768082       0.00000000
Si       2.90492077       1.80054999      -1.55995080       0.00000000
Si      -3.06429628       2.12043672       0.84468184       0.00000000
