10
Lattice="16.28999089631971 0.0 0.0 0.0 16.28999089631971 0.0 0.0 0.0 34.46413024517268" Properties=species:S:1:pos:R:3:initial_magmoms:R:1 pbc="T T T"
Si       1.22692454       1.33439535      -1.60085974       0.00000000
Si       1.76415880      -1.31670441       1.20479774       0.00000000
Si      -1.46829915      -1.28330991      -1.59424263       0.00000000
Si      -1.30013748       0.80373231       2.04947958       0.00000000
Si       3.08567528       2.24344251      -0.51024173       0.00000000
Si       0.31047111       0.82771119       3.77037796       0.00000000
Si       0.96138693      -1.39603671       3.50434919       0.00000000
Si      -2.60047044      -2.91639870      -0.36197696       0.00000000
Si       2.54444654       0.01278765      -3.02509072       0.00000000
Si      -0.15967458      -2.68817580      -3.00441223       0.00000000
