10
Lattice="16.28999089631971 0.0 0.0 0.0 16.28999089631971 0.0 0.0 0.0 34.46413024517268" Properties=species:S:1:pos:R:3:initial_magmoms:R:1 pbc="T T T"
Si      -1.84782357      -1.41147963      -0.11187063       0.00000000
Si      -0.65091582       2.22374790       0.26602877       0.00000000
Si       1.59634085      -0.74098323       1.54833638       0.00000000
Si       0.80277187       0.07933230      -2.29955145       0.00000000
Si      -0.67126203      -3.31387470      -0.62731645       0.00000000
Si       2.83743197       1.34964279       1.42281795       0.00000000
Si      -2.26152441       2.19976902      -1.45486961       0.00000000
Si       3.04532495       0.80161461      -1.83683578       0.00000000
Si      -0.96138693       1.39603671      -3.50434919       0.00000000
Si       2.77175069       2.71700910      -0.54332732       0.00000000
