10
Lattice="16.28999089631971 0.0 0.0 0.0 16.28999089631971 0.0 0.0 0.0 34.46413024517268" Properties=species:S:1:pos:R:3:initial_magmoms:R:1 pbc="T T T"
Si       2.14308049      -0.82945422      -0.04955945       0.00000000
Si      -1.25936361      -0.52491267      -1.89866446       0.00000000
Si      -0.92540232      -0.65534670       2.05058243       0.00000000
Si       0.13737357       2.34571113       0.03456754       0.00000000
Si       2.79344571      -0.11777670       2.07039932       0.00000000
Si      -2.47759497       1.11669579       2.22769370       0.00000000
Si      -2.11530537       2.89918017       0.60015870       0.00000000
Si       1.01532312      -0.89985960       3.46985057       0.00000000
Si       0.23509728      -0.54232668      -3.72846955       0.00000000
Si       1.02990267       3.06659250      -2.00726100       0.00000000
