10
Lattice="16.28999089631971 0.0 0.0 0.0 16.28999089631971 0.0 0.0 0.0 34.46413024517268" Properties=species:S:1:pos:R:3:initial_magmoms:R:1 pbc="T T T"
Si       1.77812259       0.78208290      -1.39945125       0.00000000
Si      -1.94072544       0.24451290      -1.41926814       0.00000000
Si       0.51441118      -2.29700403       0.62476610       0.00000000
Si      -0.16221582       1.34517933       2.17137928       0.00000000
Si       2.16630026      -2.70925506      -1.05773921       0.00000000
Si       1.12775737       0.07040538      -3.51941002       0.00000000
Si      -1.01532312       0.89985960      -3.46985057       0.00000000
Si       3.47968151      -0.78289740      -1.16037345       0.00000000
Si       1.83369267      -1.77099993       2.91590830       0.00000000
Si      -2.53348596       1.58983884       2.47421576       0.00000000
