10
Lattice="16.28999089631971 0.0 0.0 0.0 16.28999089631971 0.0 0.0 0.0 34.46413024517268" Properties=species:S:1:pos:R:3:initial_magmoms:R:1 pbc="T T T"
Si       0.92540232       0.65534670      -2.05058243       0.00000000
Si      -1.55219265       1.77204249       0.17711126       0.00000000
Si      -1.32258510      -1.96429707      -0.14495621       0.00000000
Si       1.94072544      -0.24451290       1.41926814       0.00000000
Si      -3.60847935       0.56747844       0.33909277       0.00000000
Si       3.06848281      -0.17410752      -2.10014188       0.00000000
Si       3.71884803       0.53757000       0.01981689       0.00000000
Si       1.06277589       3.00105783      -2.01601489       0.00000000
Si      -1.30473126      -2.99566584       2.00295298       0.00000000
Si      -1.26674298       2.88080505       2.22941690       0.00000000
