10
Lattice="16.28999089631971 0.0 0.0 0.0 16.28999089631971 0.0 0.0 0.0 34.46413024517268" Properties=species:S:1:pos:R:3:initial_magmoms:R:1 pbc="T T T"
Si      -1.86875622      -0.95951358      -1.19529050       0.00000000
Si       1.86007595       0.81485838      -1.38615296       0.00000000
Si       1.33821440      -1.28910915       1.61241557       0.00000000
Si      -1.33473744       1.42128621       1.61366662       0.00000000
Si       2.72668440      -2.58504381       0.17018052       0.00000000
Si      -2.70431919      -2.65170249       0.21350196       0.00000000
Si       2.78463282       2.67796197       0.07225409       0.00000000
Si      -2.82804174       2.62816344       0.25399044       0.00000000
Si       3.64888574      -0.82673379      -1.07807793       0.00000000
Si      -3.68217531       0.88633890      -1.15779350       0.00000000
