10
Lattice="16.28999089631971 0.0 0.0 0.0 16.28999089631971 0.0 0.0 0.0 34.46413024517268" Properties=species:S:1:pos:R:3:initial_magmoms:R:1 pbc="T T T"
Si       1.35413883      -1.35391077      -1.35675017       0.00000000
Si      -1.35801585      -1.35633798       1.35654339       0.00000000
Si       1.35664749       1.35835794       1.35664678       0.00000000
Si      -1.35659862       1.35739683      -1.36302265       0.00000000
Si       2.71417513      -2.71308321       0.00075821       0.00000000
Si      -0.00074934      -2.71422351       2.71391392       0.00000000
Si       2.71421300       0.00099369       2.71432749       0.00000000
Si       2.71307442       2.71622718      -0.00099946       0.00000000
Si       0.01184283      -2.69772174      -2.73170776       0.00000000
Si      -2.71686249      -2.71283886      -0.00055143       0.00000000
