10
Lattice="16.28999089631971 0.0 0.0 0.0 16.28999089631971 0.0 0.0 0.0 34.46413024517268" Properties=species:S:1:pos:R:3:initial_magmoms:R:1 pbc="T T T"
Si       1.16976861      -0.19124460      -2.02645753       0.00000000
Si       1.42096041       1.61380143       1.26841856       0.00000000
Si      -1.84513572       1.71862758       0.01695636       0.00000000
Si      -1.09191870      -2.27149389       0.38572276       0.00000000
Si       2.78256073      -1.64151072      -0.86384391       0.00000000
Si      -0.42932295       3.07736019       1.25446058       0.00000000
Si       1.47431016       0.05892093       3.03236266       0.00000000
Si      -0.09187560      -1.68078591       2.98511231       0.00000000
Si      -0.44010693      -1.21378419      -3.37124864       0.00000000
Si      -2.04055056      -2.25893430      -2.02494110       0.00000000
