10
Lattice="16.28999089631971 0.0 0.0 0.0 16.28999089631971 0.0 0.0 0.0 34.46413024517268" Properties=species:S:1:pos:R:3:initial_magmoms:R:1 pbc="T T T"
Si       0.89252910       0.72088137      -2.04182854       0.00000000
Si      -0.13737357      -2.34571113      -0.03456754       0.00000000
Si       1.38551241       1.53816696       1.13766158       0.00000000
Si      -2.25267894       0.55346904       0.56559116       0.00000000
Si       0.91062729       3.48444729      -0.17759376       0.00000000
Si      -2.61496854      -1.22901534       2.19312615       0.00000000
Si      -0.12282660       2.80600137      -2.30061984       0.00000000
Si       3.20640047       1.00392012      -1.54647532       0.00000000
Si      -1.39673718      -2.87062380      -1.93323200       0.00000000
Si       2.00570692      -3.17516535      -0.08412699       0.00000000
