10
Lattice="16.28999089631971 0.0 0.0 0.0 16.28999089631971 0.0 0.0 0.0 34.46413024517268" Properties=species:S:1:pos:R:3:initial_magmoms:R:1 pbc="T T T"
Si      -2.23809939       0.72137007       0.00406677       0.00000000
Si       1.40559894       1.76329476      -0.70878970       0.00000000
Si       0.04605183      -2.13008040      -1.08255340       0.00000000
Si       0.88166367      -0.65836035       2.13560549       0.00000000
Si      -3.17563776      -1.31035131       0.94786750       0.00000000
Si       2.32101549       2.65096944       1.26479982       0.00000000
Si       3.20935806       0.80089785      -1.82573832       0.00000000
Si       3.18963087      -0.95079843       1.78993007       0.00000000
Si      -0.03078810      -2.80380222       2.59728724       0.00000000
Si       3.68424318      -1.14538248      -0.51048298       0.00000000
