10
Lattice="16.28999089631971 0.0 0.0 0.0 16.28999089631971 0.0 0.0 0.0 34.46413024517268" Properties=species:S:1:pos:R:3:initial_magmoms:R:1 pbc="T T T"
Si      -1.35584928       1.35650088       1.35568178       0.00000000
Si      -1.35580041      -1.35860229      -1.35671571       0.00000000
Si       1.35924068       1.35711990      -1.35644000       0.00000000
Si       1.36017073      -1.36156707       1.36398764       0.00000000
Si      -2.69803125       0.00610875       2.71291446       0.00000000
Si      -0.00136836       2.69695611       2.72642440       0.00000000
Si      -2.71319724       2.71249677       0.00062035       0.00000000
Si      -2.71357191      -0.00105885      -2.71356928       0.00000000
Si      -2.71278999      -2.71526607       0.00086160       0.00000000
Si       0.00161271       2.71453302      -2.71374160       0.00000000
