10
Lattice="16.28999089631971 0.0 0.0 0.0 16.28999089631971 0.0 0.0 0.0 34.46413024517268" Properties=species:S:1:pos:R:3:initial_magmoms:R:1 pbc="T T T"
Si       0.05334975      -1.55488050       1.76394410       0.00000000
Si      -1.85028336       1.46355876      -0.01395798       0.00000000
Si       1.65231166       1.67953158      -0.30890217       0.00000000
Si      -1.42096041      -1.61380143      -1.26841856       0.00000000
Si       2.06842668      -2.20801176       0.73767066       0.00000000
Si      -3.26609613       0.10482615      -1.25146220       0.00000000
Si       2.95173890      -1.37367054      -1.31253267       0.00000000
Si      -2.68271865       1.38683286       2.16307342       0.00000000
Si      -0.25119180      -1.80504603      -3.29487609       0.00000000
Si       1.48914125       1.95792768      -2.92035417       0.00000000
