10
Lattice="16.28999089631971 0.0 0.0 0.0 16.28999089631971 0.0 0.0 0.0 34.46413024517268" Properties=species:S:1:pos:R:3:initial_magmoms:R:1 pbc="T T T"
Si       1.80375912      -0.96239691      -1.11694862       0.00000000
Si       0.91541655       0.88767468       1.97358952       0.00000000
Si      -1.40559894      -1.76329476       0.70878970       0.00000000
Si      -0.61535475       1.92994146      -1.22196088       0.00000000
Si       1.45792242       3.07416476      -0.87997313       0.00000000
Si       2.27864424      -2.90867724       0.19830672       0.00000000
Si       0.77030523      -1.64084283      -3.23997470       0.00000000
Si      -0.52393527      -2.42165511       2.84439519       0.00000000
Si       1.82514789       3.02384919       1.49877693       0.00000000
Si      -0.79493571       1.34415306       3.50610686       0.00000000
