10
Lattice="16.28999089631971 0.0 0.0 0.0 16.28999089631971 0.0 0.0 0.0 34.46413024517268" Properties=species:S:1:pos:R:3:initial_magmoms:R:1 pbc="T T T"
Si      -1.70155892       1.56498030      -0.23907781       0.00000000
Si       1.48439367       0.33860394       1.75615520       0.00000000
Si      -1.31338125      -1.92635766       0.10263424       0.00000000
Si       1.07779527       0.73283823      -1.96931597       0.00000000
Si      -1.99931080      -1.46100123      -2.11244558       0.00000000
Si       1.86696432       2.68620471      -0.99584160       0.00000000
Si      -2.35192414       0.85330278      -2.35903657       0.00000000
Si      -0.27701145       3.44686626      -0.16404935       0.00000000
Si       0.23947929      -3.68476379      -0.17311342       0.00000000
Si       2.29001562      -1.03863411      -2.78229079       0.00000000
