10
Lattice="16.28999089631971 0.0 0.0 0.0 16.28999089631971 0.0 0.0 0.0 34.46413024517268" Properties=species:S:1:pos:R:3:initial_magmoms:R:1 pbc="T T T"
Si      -1.35768516      -1.35666378       1.35812874       0.00000000
Si       1.35720135       1.35878148       1.35816320       0.00000000
Si       1.35858600      -1.35790182      -1.35778410       0.00000000
Si      -1.35802074       1.35990549      -1.36071355       0.00000000
Si      -2.71481665      -2.71342530       0.00220571       0.00000000
Si       2.71435383      -2.71425609       0.00117178       0.00000000
Si       0.00000000      -2.71466334       2.71560266       0.00000000
Si      -2.71477877       0.00065160       2.71577498       0.00000000
Si       2.71446786       2.71616202       0.00155089       0.00000000
Si       2.71604799       0.00100998       2.71532695       0.00000000
