10
Lattice="16.28999089631971 0.0 0.0 0.0 16.28999089631971 0.0 0.0 0.0 34.46413024517268" Properties=species:S:1:pos:R:3:initial_magmoms:R:1 pbc="T T T"
Si      -1.35642693      -1.35786924       1.35764624       0.00000000
Si      -1.35497712       1.35703845      -1.36074801       0.00000000
Si       1.35865248       1.35721764       1.35764624       0.00000000
Si       1.35789662      -1.35597960      -1.36116158       0.00000000
Si      -2.71410069       2.71422351       0.00003446       0.00000000
Si      -2.71410069      -0.00026064       2.71477552       0.00000000
Si      -2.71307442      -2.71622718       0.00099946       0.00000000
Si       2.71608026       2.71366965       0.00034464       0.00000000
Si      -2.68955166      -0.00866628      -2.74057883       0.00000000
Si       0.00094040       2.71546155       2.71505123       0.00000000
