10
Lattice="16.28999089631971 0.0 0.0 0.0 16.28999089631971 0.0 0.0 0.0 34.46413024517268" Properties=species:S:1:pos:R:3:initial_magmoms:R:1 pbc="T T T"
Si      -1.10693808       1.39637880       1.51780114       0.00000000
Si       1.33747416       1.35166275      -1.37305172       0.00000000
Si      -1.38215763      -1.35940050      -1.36833013       0.00000000
Si       1.39150809      -1.36078515       1.43143399       0.00000000
Si      -2.20871223      -0.49953285       2.49485978       0.00000000
Si      -0.62530794      -2.25912978       2.64994846       0.00000000
Si       2.69311167       2.70821250       0.00678944       0.00000000
Si       2.69053785       0.00008145      -2.72993975       0.00000000
Si       2.69612532      -2.72605005       0.00851264       0.00000000
Si      -2.71987614       2.72202642       0.02171241       0.00000000
