10
Lattice="16.28999089631971 0.0 0.0 0.0 16.28999089631971 0.0 0.0 0.0 34.46413024517268" Properties=species:S:1:pos:R:3:initial_magmoms:R:1 pbc="T T T"
Si       1.33553565       1.34884458      -1.39114539       0.00000000
Si      -1.37541615      -1.36821339      -1.38783684       0.00000000
Si      -1.31004115       1.43778798       1.45673067       0.00000000
Si       1.61293806      -1.32564762       1.49608873       0.00000000
Si      -2.42307953      -0.33945102       2.60452471       0.00000000
Si       2.67351480       2.72583828      -0.00923639       0.00000000
Si      -2.73695525       2.69030979      -0.02540008       0.00000000
Si       2.71987614      -2.72202642      -0.02171241       0.00000000
Si       2.69796609      -0.00627165      -2.74961878       0.00000000
Si      -0.01878400       2.70606222      -2.75106627       0.00000000
