10
Lattice="16.28999089631971 0.0 0.0 0.0 16.28999089631971 0.0 0.0 0.0 34.46413024517268" Properties=species:S:1:pos:R:3:initial_magmoms:R:1 pbc="T T T"
Si      -1.85875074      -0.90904716      -1.09061801       0.00000000
Si      -1.32145132       1.43184213       1.29399096       0.00000000
Si       1.58340429      -1.75959693       0.15508867       0.00000000
Si       1.10177415       1.89591165      -0.97705864       0.00000000
Si       1.88740827       1.23356025       1.26886659       0.00000000
Si       2.20871223       0.49953285      -2.49485978       0.00000000
Si      -0.54122873      -2.23065486      -2.51484899       0.00000000
Si       0.64746234      -0.92247012       3.47126360       0.00000000
Si       0.92103660      -2.83786461       2.17775514       0.00000000
Si      -1.28927205       0.35877096       3.48532498       0.00000000
