10
Lattice="16.28999089631971 0.0 0.0 0.0 16.28999089631971 0.0 0.0 0.0 34.46413024517268" Properties=species:S:1:pos:R:3:initial_magmoms:R:1 pbc="T T T"
Si       1.93673439      -1.28124108      -0.01406137       0.00000000
Si       0.67464709       2.12037156       0.67859910       0.00000000
Si      -0.03217927       1.07307117      -2.19133402       0.00000000
Si      -1.48593212      -1.77450228       0.79529471       0.00000000
Si      -2.90661560       1.03379598       1.65762220       0.00000000
Si      -1.34042984       2.77350282       1.70487255       0.00000000
Si       1.55795931       2.95471278      -1.37160422       0.00000000
Si      -3.09654071      -1.79848116      -0.92560366       0.00000000
Si       1.28927205      -0.35877096      -3.48532498       0.00000000
Si      -2.45393279      -1.04192469       2.77312333       0.00000000
