10
Lattice="16.28999089631971 0.0 0.0 0.0 16.28999089631971 0.0 0.0 0.0 34.46413024517268" Properties=species:S:1:pos:R:3:initial_magmoms:R:1 pbc="T T T"
Si      -1.35431965       1.35721764      -1.35992088       0.00000000
Si       1.36243044      -1.35511623      -1.35847338       0.00000000
Si      -1.33553565      -1.34884458       1.39114539       0.00000000
Si       1.33797915       1.37699370       1.38190900       0.00000000
Si       2.53555479      -0.14884173       2.70950251       0.00000000
Si      -2.70916451       2.71624347      -0.00234356       0.00000000
Si      -2.71095180      -2.71705797       0.00330856       0.00000000
Si      -2.71188186       0.00162900      -2.71711908       0.00000000
Si       0.00346977      -2.71393029      -2.71677444       0.00000000
Si       0.00237834       2.71646700      -2.71680891       0.00000000
