10
Lattice="10.86 0.0 0.0 0.0 10.86 0.0 0.0 0.0 10.86" Properties=species:S:1:pos:R:3:initial_magmoms:R:1 pbc="T T T"
Si      -1.40074452      -1.28694258       1.30552404       0.00000000
Si       1.31425548      -1.28694258      -1.40947596       0.00000000
Si       1.31425548       1.42805742       1.30552404       0.00000000
Si      -1.38027342       1.30489416      -1.43220594       0.00000000
Si      -0.04324452      -2.64444258       2.66302404       0.00000000
Si       2.67175548      -2.64444258      -0.05197596       0.00000000
Si       2.67175548       0.07055742       2.66302404       0.00000000
Si      -2.66188374      -0.18324078      -2.69531082       0.00000000
Si       2.85267222       2.49840816       0.09591552       0.00000000
Si      -2.75824452      -2.64444258      -0.05197596       0.00000000
