10
Lattice="10.86 0.0 0.0 0.0 10.86 0.0 0.0 0.0 10.86" Properties=species:S:1:pos:R:3:initial_magmoms:R:1 pbc="T T T"
Si       1.38574686      -1.48878654       1.21277964       0.00000000
Si       1.38574686       1.22621346      -1.50222036       0.00000000
Si      -1.32925314      -1.48878654      -1.50222036       0.00000000
Si      -2.52562332       2.40663030      -0.02175258       0.00000000
Si      -2.55983232      -0.08969274       2.42170398       0.00000000
Si       0.03364428       2.63000964       2.53219362       0.00000000
Si       2.74324686      -0.13128654       2.57027964       0.00000000
Si       2.74324686       2.58371346      -0.14472036       0.00000000
Si       0.02824686      -2.84628654       2.57027964       0.00000000
Si       0.02824686       2.58371346      -2.85972036       0.00000000
