10
Lattice="10.86 0.0 0.0 0.0 10.86 0.0 0.0 0.0 10.86" Properties=species:S:1:pos:R:3:initial_magmoms:R:1 pbc="T T T"
Si       1.28693172      -1.36986954      -1.22311836       0.00000000
Si       1.28693172       1.34513046       1.49188164       0.00000000
Si      -1.42806828      -1.36986954       1.49188164       0.00000000
Si      -1.20804468       1.66275288      -1.40598990       0.00000000
Si       2.44645392      -0.09291816      -2.45811756       0.00000000
Si      -2.77143942       0.30017040      -2.46945540       0.00000000
Si      -0.07056828      -2.72736954      -2.58061836       0.00000000
Si       2.64443172      -2.72736954       0.13438164       0.00000000
Si       2.86502004       2.50996320       0.37310616       0.00000000
Si       2.64443172      -0.01236954       2.84938164       0.00000000
