10
Lattice="10.86 0.0 0.0 0.0 10.86 0.0 0.0 0.0 10.86" Properties=species:S:1:pos:R:3:initial_magmoms:R:1 pbc="T T T"
Si       1.31409258       0.93696822       1.60887642       0.00000000
Si      -1.50644490      -1.43587662       1.13983302       0.00000000
Si       1.20855510      -1.43587662      -1.57516698       0.00000000
Si      -1.50644490       1.27912338      -1.57516698       0.00000000
Si       2.42562444       2.62896708      -0.19321026       0.00000000
Si      -0.13481604      -2.48083668       2.60849598       0.00000000
Si      -0.00370326       2.61235128       2.60327232       0.00000000
Si      -2.86394490      -0.07837662       2.49733302       0.00000000
Si       2.52905508      -2.89838196      -0.40304718       0.00000000
Si       2.56605510      -0.07837662      -2.93266698       0.00000000
