10
Lattice="10.86 0.0 0.0 0.0 10.86 0.0 0.0 0.0 10.86" Properties=species:S:1:pos:R:3:initial_magmoms:R:1 pbc="T T T"
Si       1.21225836       1.38177210       1.25156070       0.00000000
Si       1.31779584      -1.67538306      -0.99439590       0.00000000
Si      -1.50274164      -1.33322790       1.25156070       0.00000000
Si      -1.50274164       1.38177210      -1.46343930       0.00000000
Si      -0.41711088      -2.84444034       2.30894460       0.00000000
Si       0.00370326      -2.61235128      -2.60327232       0.00000000
Si       2.42932770       0.01661580      -2.79648258       0.00000000
Si       2.61500112       0.09260322       2.67779364       0.00000000
Si       2.56975836       2.73927210      -0.10593930       0.00000000
Si      -0.14524164       2.73927210       2.60906070       0.00000000
