10
Lattice="10.86 0.0 0.0 0.0 10.86 0.0 0.0 0.0 10.86" Properties=species:S:1:pos:R:3:initial_magmoms:R:1 pbc="T T T"
Si       1.13691168       1.55016726       1.11877548       0.00000000
Si      -1.57808832      -1.16483274       1.11877548       0.00000000
Si       1.13691168      -1.16483274      -1.59622452       0.00000000
Si       2.49441168       0.19266726       2.47627548       0.00000000
Si      -0.22058832      -2.52233274       2.47627548       0.00000000
Si       2.49441168      -2.52233274      -0.23872452       0.00000000
Si      -0.22058832       2.90766726       2.47627548       0.00000000
Si      -2.86502004      -2.50996320      -0.37310616       0.00000000
Si       2.49441168       2.90766726      -0.23872452       0.00000000
Si      -2.93558832       0.19266726       2.47627548       0.00000000
