10
Lattice="10.86 0.0 0.0 0.0 10.86 0.0 0.0 0.0 10.86" Properties=species:S:1:pos:R:3:initial_magmoms:R:1 pbc="T T T"
Si       1.45148244      -1.17284742      -1.18816002       0.00000000
Si      -1.26351756      -1.17284742       1.52683998       0.00000000
Si      -1.26351756       1.54215258      -1.18816002       0.00000000
Si       1.54117518       1.57445022       1.34947446       0.00000000
Si       0.09398244      -2.53034742      -2.54566002       0.00000000
Si      -2.62101756      -2.53034742       0.16933998       0.00000000
Si      -2.62101756       0.18465258      -2.54566002       0.00000000
Si       2.67819546      -2.62376514       0.09813096       0.00000000
Si       2.80898244       0.18465258      -2.54566002       0.00000000
Si       0.09398244       2.89965258      -2.54566002       0.00000000
