10
Lattice="16.290000149 0.0 0.0 0.0 16.290000149 0.0 0.0 0.0 29.1751946751" Properties=species:S:1:pos:R:3:initial_magmoms:R:1 pbc="T T T"
Si      -1.34793072      -1.33175638       1.37711879       0.00000000
Si       1.36153450       1.36783873       1.36515696       0.00000000
Si      -1.38312364       1.34107426      -1.37354191       0.00000000
Si       1.38259747      -1.37305153      -1.35078526       0.00000000
Si       2.68612328       0.11015298      -2.62200655       0.00000000
Si      -2.67779909      -2.69076593      -0.00735798       0.00000000
Si      -2.60856464      -0.13742244      -2.78017140       0.00000000
Si      -0.03287322       2.80142391      -2.60530958       0.00000000
Si      -2.70101234       0.05714532       2.71030848       0.00000000
Si       0.02096523      -2.67573026       2.74639820       0.00000000
