10
Lattice="16.290000149 0.0 0.0 0.0 16.290000149 0.0 0.0 0.0 29.1751946751" Properties=species:S:1:pos:R:3:initial_magmoms:R:1 pbc="T T T"
H        0.44162190       1.28474344      -0.66959989       0.00000000
Si      -0.80114221       0.99320131       1.94376817       0.00000000
Si      -1.87716188      -0.71420248      -1.27206766       0.00000000
Si       2.01121229      -1.36570474      -0.07687664       0.00000000
H        0.97192657      -0.25892955      -2.47464001       0.00000000
H       -0.65013391      -2.66616803      -1.05097804       0.00000000
Si       3.16857445       0.69305806      -0.67067938       0.00000000
Si      -2.31795299       2.28871244       0.64984829       0.00000000
Si       0.79263883      -2.95256253      -1.48945204       0.00000000
Si       2.00230166       0.85025656      -2.68896099       0.00000000
