10
Lattice="16.290000149 0.0 0.0 0.0 16.290000149 0.0 0.0 0.0 29.1751946751" Properties=species:S:1:pos:R:3:initial_magmoms:R:1 pbc="T T T"
Si      -1.34267068       1.35780409      -1.36930859       0.00000000
Si       1.32751447      -1.34918668      -1.39556626       0.00000000
Si       1.34827770       1.37819917       1.35165759       0.00000000
Si      -1.34429968      -1.37153656       1.36312345       0.00000000
Si       2.66637980      -2.70822881      -0.03218024       0.00000000
Si      -2.68666085       2.72280836      -0.01800110       0.00000000
Si      -2.70964604      -2.71112843      -0.00939441       0.00000000
Si      -2.72764650      -0.02796993       2.69911396       0.00000000
Si       2.71841006       0.03554478       2.70882930       0.00000000
Si       2.70824510       2.72868906      -0.00189639       0.00000000
