10
Lattice="16.290000149 0.0 0.0 0.0 16.290000149 0.0 0.0 0.0 29.1751946751" Properties=species:S:1:pos:R:3:initial_magmoms:R:1 pbc="T T T"
Si      -1.33170751       1.36686296      -1.37181765       0.00000000
Si       1.37032622       1.37232011       1.33024300       0.00000000
Si       1.36923479      -1.34012944      -1.38077444       0.00000000
Si      -1.37922544      -1.32665761       1.38932277       0.00000000
Si      -2.63669942      -2.69474069      -0.06622769       0.00000000
Si       0.05946795      -2.67634928       2.67606556       0.00000000
Si      -0.02614545       2.70964604       2.67837040       0.00000000
Si      -2.70332552       2.70638804      -0.00641854       0.00000000
Si      -2.66291003       0.01122381      -2.75460518       0.00000000
Si       2.77619070       0.03412755       2.66340352       0.00000000
