10
Lattice="16.290000149 0.0 0.0 0.0 16.290000149 0.0 0.0 0.0 29.1751946751" Properties=species:S:1:pos:R:3:initial_magmoms:R:1 pbc="T T T"
Si      -0.90280810       0.90098362      -0.81004928       0.00000000
Si       0.90520273      -1.56527353       1.49397419       0.00000000
H       -2.01652283      -0.35455185       1.41563880       0.00000000
Si       1.93052792       0.58728709       1.88317129       0.00000000
Si       1.88123438      -1.96639850      -0.65941775       0.00000000
Si      -1.40432833      -1.66059447       1.85924763       0.00000000
Si      -2.21565179      -0.56659879      -2.08970249       0.00000000
Si       0.44347896       2.21008061      -2.20234792       0.00000000
Si      -2.04584483       2.32855778       0.65320343       0.00000000
Si       3.05219217       2.02880549       0.33236382       0.00000000
