10
Lattice="16.290000149 0.0 0.0 0.0 16.290000149 0.0 0.0 0.0 29.1751946751" Properties=species:S:1:pos:R:3:initial_magmoms:R:1 pbc="T T T"
H       -0.15897411       0.79456105       1.27638559       0.00000000
Si       1.07670385       1.16947540      -1.70686559       0.00000000
Si      -2.21016206       0.07982100      -0.80969918       0.00000000
Si       0.85978621      -2.07858773       0.78988922       0.00000000
H       -1.44994033      -1.89801308       1.73350254       0.00000000
H       -1.55864350       2.82383895       0.81798493       0.00000000
Si      -2.69653259      -1.91446598       0.87260090       0.00000000
Si       1.95102074      -0.61211305      -2.99101178       0.00000000
Si       0.73594963      -1.64211346       3.14695320       0.00000000
Si      -2.75516031       2.46161450      -0.07244201       0.00000000
