10
Lattice="16.290000149 0.0 0.0 0.0 16.290000149 0.0 0.0 0.0 29.1751946751" Properties=species:S:1:pos:R:3:initial_magmoms:R:1 pbc="T T T"
Si      -1.30411225       1.38061009      -1.37502693       0.00000000
Si       1.37906091       1.36085032       1.33502773       0.00000000
Si       1.39647167      -1.33732593      -1.34812740       0.00000000
Si      -1.38300472      -1.33735851       1.38121207       0.00000000
Si       0.08603588      -2.63051802       2.65313385       0.00000000
Si      -2.67718007      -0.00325800      -2.68478894       0.00000000
Si      -2.62796798       2.75160909      -0.00172134       0.00000000
Si       0.02614545      -2.70964604      -2.67837040       0.00000000
Si      -2.61527807       0.09339057       2.79655911       0.00000000
Si       2.72694602       0.02433726       2.71081321       0.00000000
