10
Lattice="16.290000149 0.0 0.0 0.0 16.290000149 0.0 0.0 0.0 29.1751946751" Properties=species:S:1:pos:R:3:initial_magmoms:R:1 pbc="T T T"
H       -0.17524782       1.38883980       0.60760260       0.00000000
Si       0.83487880      -1.24378712       1.71267437       0.00000000
Si       1.89182288       0.01337246      -1.34240906       0.00000000
Si      -1.89832259      -0.54514160      -1.28869752       0.00000000
Si      -2.61692336       1.64890965      -0.88558386       0.00000000
Si       0.65192581       1.12443681      -2.94975806       0.00000000
Si      -0.68043331       2.67218230      -1.79179458       0.00000000
Si       1.87527224       0.60965488       2.66311469       0.00000000
Si       2.32870439      -2.27567718      -1.04423857       0.00000000
Si      -0.99634528      -2.26490949       2.65729132       0.00000000
