10
Lattice="16.290000149 0.0 0.0 0.0 16.290000149 0.0 0.0 0.0 29.1751946751" Properties=species:S:1:pos:R:3:initial_magmoms:R:1 pbc="T T T"
H       -0.91263097       0.72342262       0.98425437       0.00000000
Si       1.15717645       1.65271826      -1.18244147       0.00000000
Si       1.38356054      -1.19306332       1.46710384       0.00000000
Si      -1.59767434      -1.15004143      -1.32615847       0.00000000
Si      -0.64136989       2.77796631      -2.20780368       0.00000000
Si      -1.99855496       2.41794101       1.78002239       0.00000000
Si       2.61162260       0.39128580      -2.48989864       0.00000000
Si      -2.24839469       2.93001717      -0.52086475       0.00000000
Si      -0.07187148      -2.37754181       2.88750986       0.00000000
Si       2.84309698      -2.48938895       0.13388497       0.00000000
