10
Lattice="16.290000149 0.0 0.0 0.0 16.290000149 0.0 0.0 0.0 29.1751946751" Properties=species:S:1:pos:R:3:initial_magmoms:R:1 pbc="T T T"
Si       1.36513459       1.35532801       1.34719379       0.00000000
Si       1.37036368      -1.36319608      -1.33619474       0.00000000
Si      -1.34830702      -1.34767171       1.37838207       0.00000000
Si      -1.34837218       1.36104580      -1.36525323       0.00000000
Si      -0.00985545       2.71972955       2.67968328       0.00000000
Si       2.71591769      -0.02120958       2.68931109       0.00000000
Si      -2.69627195      -2.70925508       0.02736633       0.00000000
Si       2.72230337       0.01181025      -2.68324265       0.00000000
Si       0.02360421      -2.72012051      -2.69879303       0.00000000
Si      -2.70881525       0.00724905      -2.71904062       0.00000000
