10
Lattice="16.290000149 0.0 0.0 0.0 16.290000149 0.0 0.0 0.0 29.1751946751" Properties=species:S:1:pos:R:3:initial_magmoms:R:1 pbc="T T T"
Si      -1.37907883       1.34667802       1.32198642       0.00000000
Si      -1.36998901      -1.36177885      -1.32770476       0.00000000
Si       1.35221662       1.39098682      -1.32755888       0.00000000
Si       1.35562123      -1.32976900       1.38818494       0.00000000
Si       0.04083903       2.65689902       2.63583296       0.00000000
Si       0.01557324      -2.67613751      -2.68642275       0.00000000
Si       2.70283682      -2.67763619       0.02164799       0.00000000
Si      -2.72598491       0.00868257      -2.66626269       0.00000000
Si      -2.72860761      -0.01101204       2.67519030       0.00000000
Si       2.69591357       0.05960511      -2.71472269       0.00000000
