10
Lattice="16.290000149 0.0 0.0 0.0 16.290000149 0.0 0.0 0.0 29.1751946751" Properties=species:S:1:pos:R:3:initial_magmoms:R:1 pbc="T T T"
Si      -1.39515706       1.28334250      -1.35950572       0.00000000
Si       1.43900974      -1.37028223      -1.23236022       0.00000000
Si      -1.37580454      -1.31949001       1.35696748       0.00000000
Si       0.87847084       1.88920019       1.06900831       0.00000000
Si      -2.43434504       0.14533938       2.83617902       0.00000000
Si       0.05582583      -2.72052776      -2.57272702       0.00000000
Si      -2.57826719       2.73460233       0.05327391       0.00000000
Si      -0.01120752       2.61881300      -2.70066025       0.00000000
Si       2.78031207      -0.03741813      -2.60560746       0.00000000
Si      -2.74535373      -0.05976801      -2.67189350       0.00000000
