10
Lattice="16.290000149 0.0 0.0 0.0 16.290000149 0.0 0.0 0.0 29.1751946751" Properties=species:S:1:pos:R:3:initial_magmoms:R:1 pbc="T T T"
Si       0.61157548       0.51745185      -2.18247961       0.00000000
Si      -2.30112542      -0.06252102       0.45227387       0.00000000
Si       0.77087539       2.04597515       0.88085748       0.00000000
Si       1.22422609      -1.86741231       0.95286186       0.00000000
Si       1.70683364       1.00367578       2.71092991       0.00000000
Si       3.03919275      -0.54406972       1.55296644       0.00000000
Si       1.29837817      -1.53190998      -2.94958301       0.00000000
Si      -0.22965642      -0.01959687       3.61714064       0.00000000
Si      -2.42496200       0.37395324       2.80933785       0.00000000
Si      -3.16091163       2.01606671      -0.33761535       0.00000000
