10
Lattice="16.290000149 0.0 0.0 0.0 16.290000149 0.0 0.0 0.0 29.1751946751" Properties=species:S:1:pos:R:3:initial_magmoms:R:1 pbc="T T T"
Si      -1.23989707       1.11106435      -1.60734900       0.00000000
Si      -1.89182288      -0.01337246       1.34240906       0.00000000
Si       1.57535704       1.68481444       0.43634421       0.00000000
Si       0.43688151      -2.28904964       0.29817049       0.00000000
H        1.51878187       0.50274850      -2.42539228       0.00000000
H       -2.06707070       1.37546734       1.95001166       0.00000000
Si      -1.05694408      -1.25715958       3.05508343       0.00000000
Si       2.04390632      -2.44110051      -1.38876844       0.00000000
Si       0.85297699       2.31934253       2.61947881       0.00000000
Si       2.70870122      -0.45301024      -2.41238015       0.00000000
