10
Lattice="16.290000149 0.0 0.0 0.0 16.290000149 0.0 0.0 0.0 29.1751946751" Properties=species:S:1:pos:R:3:initial_magmoms:R:1 pbc="T T T"
Si      -1.83122408      -1.28681227       0.64771850       0.00000000
Si       1.82604386      -1.45282366      -0.16898273       0.00000000
Si      -1.03083121       0.82916101      -1.95228733       0.00000000
Si       0.65660104       1.77225428       1.58278349       0.00000000
H        0.02034621      -1.16431147       3.10712906       0.00000000
Si      -2.56204235       2.08674902      -0.73337687       0.00000000
Si       3.44764821       0.23483664      -0.10103370       0.00000000
Si      -3.48821031       0.36802368       0.56483177       0.00000000
Si      -1.35801586      -1.70168600       2.86159062       0.00000000
Si       2.88901524       1.27115758       1.90846618       0.00000000
