10
Lattice="16.290000149 0.0 0.0 0.0 16.290000149 0.0 0.0 0.0 29.1751946751" Properties=species:S:1:pos:R:3:initial_magmoms:R:1 pbc="T T T"
Si      -0.51196864      -0.91131148      -2.09194898       0.00000000
Si       2.05620527       1.02174139       0.72369070       0.00000000
Si      -1.41030839       1.95791141       0.00224649       0.00000000
Si      -0.68576991      -1.79233985       1.47953247       0.00000000
H        1.45567441       1.58029291      -2.37757414       0.00000000
Si      -1.93587104      -0.34666749       2.81475422       0.00000000
H        2.85534381      -0.44898498      -1.91917348       0.00000000
Si       0.25915761       1.21806847      -3.26800108       0.00000000
Si       1.04956471       2.25948818       2.56794228       0.00000000
Si      -3.07802811       1.17463933       1.45231202       0.00000000
