10
Lattice="16.290000149 0.0 0.0 0.0 16.290000149 0.0 0.0 0.0 29.1751946751" Properties=species:S:1:pos:R:3:initial_magmoms:R:1 pbc="T T T"
Si       1.33045318       1.33778857      -1.33461345       0.00000000
Si      -1.33635016       1.41806569       1.28184135       0.00000000
Si       1.43189101      -1.34955647       1.25873460       0.00000000
Si      -1.35853714      -1.28559440      -1.40550333       0.00000000
Si       0.04880484      -2.69199909       2.59227440       0.00000000
Si      -2.68527620       0.04413613       2.61873630       0.00000000
Si       2.77625586       0.04000987       2.59738006       0.00000000
Si       0.04916322       2.76857186       2.60619097       0.00000000
Si      -0.04408074      -2.77449165      -2.62018047       0.00000000
Si      -2.71538012      -2.68005852      -0.10161720       0.00000000
