10
Lattice="16.290000149 0.0 0.0 0.0 16.290000149 0.0 0.0 0.0 29.1751946751" Properties=species:S:1:pos:R:3:initial_magmoms:R:1 pbc="T T T"
Si       1.34721559      -1.34786719      -1.36653694       0.00000000
Si      -1.35399223      -1.37461537       1.34293421       0.00000000
Si      -1.35562123       1.32976900      -1.38818494       0.00000000
Si       1.36534636       1.33959187       1.37251786       0.00000000
Si      -0.01800045       2.68315850       2.70850837       0.00000000
Si      -2.72746731      -0.01598049       2.66427878       0.00000000
Si       2.68335398      -2.72311787      -0.01289544       0.00000000
Si      -0.01133784      -2.71308323      -2.69815118       0.00000000
Si      -2.73470007       2.67644702      -0.06619852       0.00000000
Si       2.70964604       2.71112843       0.00939441       0.00000000
