10
Lattice="16.290000149 0.0 0.0 0.0 16.290000149 0.0 0.0 0.0 29.1751946751" Properties=species:S:1:pos:R:3:initial_magmoms:R:1 pbc="T T T"
Si       1.38897175      -1.34873056       1.33065145       0.00000000
Si       1.37574427       1.34856766      -1.35019883       0.00000000
Si      -1.31370226      -1.36677988      -1.39483688       0.00000000
Si      -1.36923479       1.34012944       1.38077444       0.00000000
Si      -2.66194404      -2.71961552      -0.03676075       0.00000000
Si       0.02900435      -2.69922044       2.68420544       0.00000000
Si      -2.70094230       2.70699240       0.00895678       0.00000000
Si       0.03002410       2.70947663      -2.70591178       0.00000000
Si      -2.68186671      -0.00930159      -2.73494110       0.00000000
Si       2.70727259      -2.71147052      -0.06010090       0.00000000
