10
Lattice="16.290000149 0.0 0.0 0.0 16.290000149 0.0 0.0 0.0 29.1751946751" Properties=species:S:1:pos:R:3:initial_magmoms:R:1 pbc="T T T"
Si       1.38549709      -1.35031069      -1.35457511       0.00000000
Si      -1.35151615      -1.38455227       1.35457511       0.00000000
Si      -1.33190299       1.31505913      -1.44247998       0.00000000
Si       1.40915017       1.36371736       1.31889385       0.00000000
Si      -2.69104286      -2.67335192      -0.07498025       0.00000000
H       -1.11060334       2.94127356       2.14000053       0.00000000
Si       2.70016526      -0.04987998       2.67804947       0.00000000
Si       0.07525980       2.43154316       2.94018859       0.00000000
Si       2.72938952       2.69145011      -0.12049355       0.00000000
Si       0.04166982      -2.67757103      -2.76184063       0.00000000
