10
Lattice="16.290000149 0.0 0.0 0.0 16.290000149 0.0 0.0 0.0 29.1751946751" Properties=species:S:1:pos:R:3:initial_magmoms:R:1 pbc="T T T"
Si      -1.43189101       1.34955647      -1.25873460       0.00000000
Si      -1.38308617      -1.34244262       1.33353980       0.00000000
Si       1.34436484       1.38956633       1.33864546       0.00000000
Si       1.35322660      -1.32792823      -1.40414377       0.00000000
Si      -0.10143783       2.68734503      -2.59334804       0.00000000
Si      -0.01461213      -2.69094512       2.67489855       0.00000000
Si       2.69718419      -2.67372659      -0.03786940       0.00000000
Si       2.70332552       0.03578913       2.69097408       0.00000000
Si      -2.73453717       0.03416013       2.68187142       0.00000000
Si      -0.06963975      -2.78884803      -2.62650565       0.00000000
