10
Lattice="16.290000149 0.0 0.0 0.0 16.290000149 0.0 0.0 0.0 29.1751946751" Properties=species:S:1:pos:R:3:initial_magmoms:R:1 pbc="T T T"
Si       1.37406151      -1.34667314       1.33695330       0.00000000
Si       1.36462960       1.34751370      -1.35022801       0.00000000
Si      -1.34957764      -1.37008187      -1.35139502       0.00000000
Si      -1.35052246       1.34953366       1.37307219       0.00000000
Si       0.01858689      -2.70134955       2.67133917       0.00000000
Si       0.00223173       2.71388633      -2.68581007       0.00000000
Si      -2.73220769      -0.01054940      -2.67326474       0.00000000
Si      -2.71940375       2.69433833       0.00930689       0.00000000
Si       2.72425817       2.69134097       0.01307049       0.00000000
Si       2.72932436      -0.01467566      -2.69462098       0.00000000
