10
Lattice="16.290000149 0.0 0.0 0.0 16.290000149 0.0 0.0 0.0 29.1751946751" Properties=species:S:1:pos:R:3:initial_magmoms:R:1 pbc="T T T"
Si      -1.25010113       1.44567235       1.33522175       0.00000000
Si       1.64218840      -1.13596687       1.24934310       0.00000000
Si       0.68576991       1.79233985      -1.47953247       0.00000000
Si      -1.33775762      -2.00456597      -0.47990278       0.00000000
Si       0.30572258      -2.55131376       2.59371565       0.00000000
Si       0.17380127       0.88102837      -3.57148146       0.00000000
Si      -2.57550441       0.14226057       2.71841335       0.00000000
Si      -0.40562915      -2.78589302      -2.54337677       0.00000000
Si       0.24536976       2.84317518       2.51240438       0.00000000
Si      -2.39225820       2.96697918      -0.02722046       0.00000000
