10
Lattice="16.290000149 0.0 0.0 0.0 16.290000149 0.0 0.0 0.0 29.1751946751" Properties=species:S:1:pos:R:3:initial_magmoms:R:1 pbc="T T T"
Si      -1.32274801      -1.33877737      -1.39336062       0.00000000
Si       1.35669637       1.31193145      -1.40063691       0.00000000
Si      -1.37989333       1.35824392       1.33461928       0.00000000
Si       1.35252613      -1.36912564       1.35486687       0.00000000
Si       2.70011639       2.68187159      -0.03749013       0.00000000
Si       0.09669744      -2.71790507      -2.67516404       0.00000000
Si      -2.69454847      -2.70482420      -0.03492271       0.00000000
Si      -0.01945026       2.71204067       2.68840666       0.00000000
Si       2.69928560      -0.01220121       2.71746516       0.00000000
Si      -0.01826109       2.66092265      -2.76256417       0.00000000
