10
Lattice="16.290000149 0.0 0.0 0.0 16.290000149 0.0 0.0 0.0 29.1751946751" Properties=species:S:1:pos:R:3:initial_magmoms:R:1 pbc="T T T"
Si      -2.19767740      -0.16478964      -0.66058476       0.00000000
Si       1.31612450      -0.25241355      -1.91330927       0.00000000
Si       0.51196864       0.91131148       2.09194898       0.00000000
Si       0.82975396      -2.24670053      -0.23100919       0.00000000
Si       0.77112625       2.12937995      -1.17605210       0.00000000
H       -2.26386367      -1.21303486      -1.74820684       0.00000000
H        2.07634622      -2.23024763       0.62989245       0.00000000
H        1.96764305       2.49160439      -0.28562516       0.00000000
H        3.36731245       0.46232649       0.17277550       0.00000000
Si      -2.64232925       1.97169275      -1.54602274       0.00000000
