10
Lattice="16.290000149 0.0 0.0 0.0 16.290000149 0.0 0.0 0.0 29.1751946751" Properties=species:S:1:pos:R:3:initial_magmoms:R:1 pbc="T T T"
Si       1.36044307       1.35379675       1.35378738       0.00000000
Si      -1.33073337      -1.35907471       1.38226237       0.00000000
Si       1.37989333      -1.35824392      -1.33461928       0.00000000
Si      -1.36889595       1.34397388      -1.36927941       0.00000000
Si      -2.66573961      -2.73497700       0.03547704       0.00000000
Si      -0.00816129       2.70734915       2.70547415       0.00000000
Si       2.71687880       2.69663033      -0.02185222       0.00000000
Si      -0.02096523       2.67573026      -2.74639820       0.00000000
Si      -2.71858925       0.00195480       2.70611601       0.00000000
Si       0.05714532      -2.69702129      -2.72797990       0.00000000
