10
Lattice="16.290000149 0.0 0.0 0.0 16.290000149 0.0 0.0 0.0 29.1751946751" Properties=species:S:1:pos:R:3:initial_magmoms:R:1 pbc="T T T"
Si       0.29809723      -0.81581950      -2.16681253       0.00000000
Si      -2.27287204       0.51680025      -0.14190815       0.00000000
Si       1.31560322       1.96599776       0.08615435       0.00000000
Si       1.07170934      -1.52695945       1.47168434       0.00000000
H       -0.50478638       0.62610616       2.48908173       0.00000000
Si      -2.68241894       1.29811102       2.03065190       0.00000000
Si       3.39386515       1.25723615       0.92409512       0.00000000
Si       2.62386942      -0.21929598       2.65680993       0.00000000
Si       2.42829168      -2.88552918       0.12994632       0.00000000
Si      -0.64683844       2.08763520       3.07681603       0.00000000
