10
Lattice="16.290000149 0.0 0.0 0.0 16.290000149 0.0 0.0 0.0 29.1751946751" Properties=species:S:1:pos:R:3:initial_magmoms:R:1 pbc="T T T"
H       -1.13103100       0.05649372       1.00479370       0.00000000
Si       0.22607262      -2.13452759      -0.91271679       0.00000000
Si       2.06358464       0.69346531       0.89888775       0.00000000
Si      -0.22920030       1.51485598      -1.83590748       0.00000000
H       -0.45717885       0.98702740       2.62506732       0.00000000
H       -2.03489795       1.80336818       1.44020431       0.00000000
Si       2.35076105      -1.54831564      -1.91421370       0.00000000
H        2.43659306      -2.37128645       0.65895095       0.00000000
Si       3.32215005       0.44831709      -1.03875363       0.00000000
Si       1.72261865       2.81292465       1.82945976       0.00000000
