10
Lattice="16.290000149 0.0 0.0 0.0 16.290000149 0.0 0.0 0.0 29.1751946751" Properties=species:S:1:pos:R:3:initial_magmoms:R:1 pbc="T T T"
Si       1.36886500       1.34923555      -1.34992751       0.00000000
Si      -1.34342002      -1.36994014      -1.36314679       0.00000000
Si       1.35110890      -1.31906647       1.40790737       0.00000000
Si      -1.36313092       1.37300266       1.35025718       0.00000000
Si       2.67230936       2.64500732       0.12594932       0.00000000
Si      -2.70011639      -2.68187159       0.03749013       0.00000000
Si       0.08441478      -2.74563066      -2.65601345       0.00000000
Si      -0.00312768       2.76040569      -2.65292671       0.00000000
Si       2.77081500      -2.64927530       0.10578926       0.00000000
Si      -2.71837748      -0.02094894      -2.72507405       0.00000000
