10
Lattice="16.290000149 0.0 0.0 0.0 16.290000149 0.0 0.0 0.0 29.1751946751" Properties=species:S:1:pos:R:3:initial_magmoms:R:1 pbc="T T T"
Si      -0.72022978      -0.08001648      -1.32405786       0.00000000
H       -2.11245464       0.75781081       0.30619367       0.00000000
H        1.14896629       1.63312138      -1.12511221       0.00000000
H        1.79831828       1.20801754      -1.08210797       0.00000000
Si      -1.51376455       0.85229281       1.70671971       0.00000000
Si       0.26148708      -2.68183901       1.44423049       0.00000000
Si       2.25554600      -2.08469648       0.27442188       0.00000000
Si       0.88938514      -0.86786605      -2.84709055       0.00000000
Si       0.38490012       2.35004429       2.02703418       0.00000000
Si      -1.02957688      -1.17485110       2.76618773       0.00000000
