10
Lattice="16.290000149 0.0 0.0 0.0 16.290000149 0.0 0.0 0.0 29.1751946751" Properties=species:S:1:pos:R:3:initial_magmoms:R:1 pbc="T T T"
Si       1.34112313      -1.21498738      -1.50354366       0.00000000
Si      -1.35647646      -1.45498795       1.27974074       0.00000000
Si       1.42697143       1.42716268       1.25459172       0.00000000
Si      -1.92958473       1.09194380      -1.08353756       0.00000000
H       -1.78753267      -0.36958524      -1.67127185       0.00000000
H        0.72619192       2.52861755      -1.48174979       0.00000000
Si      -0.52040034       2.51216465      -2.34265143       0.00000000
Si      -2.86171320       1.87327085       0.97993644       0.00000000
Si      -2.55350216       0.09582446       2.57424413       0.00000000
Si      -0.21103695      -2.52265085      -2.68866924       0.00000000
