10
Lattice="16.290000149 0.0 0.0 0.0 16.290000149 0.0 0.0 0.0 29.1751946751" Properties=species:S:1:pos:R:3:initial_magmoms:R:1 pbc="T T T"
Si      -1.34501644      -1.33135891       1.34715586       0.00000000
Si       1.33056721      -1.32201170      -1.38789610       0.00000000
Si      -1.20492244       1.40279707      -1.43691918       0.00000000
Si       1.42943122       1.40300884       1.24276702       0.00000000
Si       2.30847221       0.46397178      -2.55231897       0.00000000
Si       0.67191364       2.19820520      -2.63579912       0.00000000
Si      -2.64502361      -2.65898414      -0.07878178       0.00000000
Si      -2.70194087       0.06362874       2.63585339       0.00000000
Si       0.05090625       2.75157651       2.59311173       0.00000000
Si       0.02505402      -2.69226461       2.66100240       0.00000000
