10
Lattice="16.290000149 0.0 0.0 0.0 16.290000149 0.0 0.0 0.0 29.1751946751" Properties=species:S:1:pos:R:3:initial_magmoms:R:1 pbc="T T T"
H       -1.18586314       0.50973039      -0.80018806       0.00000000
Si       1.33389037      -1.06782580      -1.62129474       0.00000000
H       -1.75493801       0.63695530       1.53064741       0.00000000
Si       1.29645595       1.67464460       1.17345550       0.00000000
Si      -0.69128245      -1.86054608       1.42030683       0.00000000
H       -0.55371339       2.17114751      -1.90493599       0.00000000
H        1.52715493      -1.07282683       2.54679027       0.00000000
Si      -3.06869394       1.09408528       0.92581645       0.00000000
H       -1.99300007       1.26125326      -2.45141656       0.00000000
Si       2.55753002       0.03635928       2.33246929       0.00000000
