10
Lattice="16.290000149 0.0 0.0 0.0 16.290000149 0.0 0.0 0.0 29.1751946751" Properties=species:S:1:pos:R:3:initial_magmoms:R:1 pbc="T T T"
Si       1.33815835      -1.35558865      -1.34659482       0.00000000
Si       1.30171762       1.18640071       1.55308401       0.00000000
Si      -1.32486571      -1.40172193       1.34105620       0.00000000
Si      -1.21140586       1.41485167      -1.45060439       0.00000000
Si      -0.16858521      -2.63889857      -2.63222895       0.00000000
Si       0.39974031       2.90616861      -2.39290483       0.00000000
Si      -2.70572015      -0.04484637       2.66664576       0.00000000
Si      -2.67594203       2.71261978      -0.09387031       0.00000000
Si      -2.73658970      -2.69987204      -0.00231243       0.00000000
Si      -0.01273878       2.67529796       2.76776115       0.00000000
