10
Lattice="16.290000149 0.0 0.0 0.0 16.290000149 0.0 0.0 0.0 29.1751946751" Properties=species:S:1:pos:R:3:initial_magmoms:R:1 pbc="T T T"
Si       1.05854050      -1.46482939      -1.47921155       0.00000000
Si      -1.31535235      -1.35624025       1.38652195       0.00000000
Si      -1.44676378       1.35523027      -1.28061600       0.00000000
Si       1.81651421       0.75351025       1.38208732       0.00000000
Si       2.15783858      -1.19638648       2.75480941       0.00000000
Si       0.28447227      -2.65864205       2.59775933       0.00000000
Si       2.43434504      -0.14533938      -2.83617902       0.00000000
Si      -2.70036074       0.12357594       2.60158128       0.00000000
Si       2.28045341      -2.99871210      -0.23719433       0.00000000
Si      -0.14392215       2.58926294      -2.78290512       0.00000000
