10
Lattice="16.290000149 0.0 0.0 0.0 16.290000149 0.0 0.0 0.0 29.1751946751" Properties=species:S:1:pos:R:3:initial_magmoms:R:1 pbc="T T T"
Si      -1.37007046       1.36090571      -1.31384654       0.00000000
Si      -1.38803833      -1.35943309       1.30351852       0.00000000
Si       1.32559876      -1.35220033      -1.38258330       0.00000000
Si       1.35570268       1.37199431       1.33777020       0.00000000
Si      -0.00560376      -2.70510113       2.63962574       0.00000000
Si      -0.02505402       2.69226461      -2.66100240       0.00000000
Si       2.68244174       0.04226379      -2.68646943       0.00000000
Si      -2.70591563       0.01130526       2.69237449       0.00000000
Si       2.73833274       0.01246185       2.65963992       0.00000000
Si      -0.00461007       2.72938952       2.67705751       0.00000000
