10
Lattice="16.290000149 0.0 0.0 0.0 16.290000149 0.0 0.0 0.0 29.1751946751" Properties=species:S:1:pos:R:3:initial_magmoms:R:1 pbc="T T T"
Si      -1.31080744      -1.36083403      -1.34524780       0.00000000
Si       1.31725828      -1.39214341       1.34057102       0.00000000
Si      -1.41970609       1.33020883       1.30211811       0.00000000
Si       1.30877119       1.28798515      -1.47209863       0.00000000
Si      -0.04644279       2.65707821       2.66573754       0.00000000
Si       2.69511536      -0.02774187       2.64557748       0.00000000
Si       2.68027517       2.69477327      -0.15964667       0.00000000
Si       2.64603359      -2.74975203      -0.02640355       0.00000000
Si      -2.77164579      -0.04479750       2.64916603       0.00000000
Si      -2.77081500       2.64927530      -0.10578926       0.00000000
