10
Lattice="16.290000149 0.0 0.0 0.0 16.290000149 0.0 0.0 0.0 29.1751946751" Properties=species:S:1:pos:R:3:initial_magmoms:R:1 pbc="T T T"
Si       2.19530558      -0.39355011       0.80780279       0.00000000
Si       0.03499092       2.28843551       0.67094195       0.00000000
Si       0.12383658      -0.43647426      -2.35706398       0.00000000
Si      -1.48511044      -1.35735449       1.32289085       0.00000000
H       -2.18588996      -0.25589961      -1.41345066       0.00000000
H       -0.89492374       2.43667451      -1.87056761       0.00000000
Si       0.46584513       2.02973402       2.95502301       0.00000000
Si      -0.73594963       1.64211346      -3.14695320       0.00000000
Si       2.10240371       0.29550060       3.03850316       0.00000000
Si       2.42496200      -0.37395324      -2.80933785       0.00000000
