10
Lattice="16.290000149 0.0 0.0 0.0 16.290000149 0.0 0.0 0.0 29.1751946751" Properties=species:S:1:pos:R:3:initial_magmoms:R:1 pbc="T T T"
Si       1.33084414       1.33913575      -1.39752100       0.00000000
Si      -1.20783835       1.46355877       1.43215196       0.00000000
Si       1.46404747      -1.21686301       1.45639654       0.00000000
Si      -1.56942748      -1.12448242      -1.46334024       0.00000000
H        1.81734500      -3.01896057      -0.79560756       0.00000000
Si      -0.18596664       2.63464688      -2.69144088       0.00000000
Si      -2.53710236       0.08301384       2.80787033       0.00000000
Si       2.92851849       2.48917718      -0.07136253       0.00000000
Si      -2.60848514       2.88797268       0.20962377       0.00000000
H        2.01588752       3.21259980       0.91289184       0.00000000
