10
Lattice="16.290000149 0.0 0.0 0.0 16.290000149 0.0 0.0 0.0 29.1751946751" Properties=species:S:1:pos:R:3:initial_magmoms:R:1 pbc="T T T"
Si       1.45444615      -1.26143245      -1.30745717       0.00000000
Si      -1.15717645      -1.65271826       1.18244147       0.00000000
Si      -1.79854634       1.12524805      -1.02536222       0.00000000
Si       1.47493734       1.35593074       1.36046850       0.00000000
H        1.04388113       2.44133345      -1.59054409       0.00000000
H       -2.06980742      -0.92929564       2.16669583       0.00000000
Si      -3.40557114       1.27729891       0.66157671       0.00000000
Si       2.62037684       0.28826784      -2.60794148       0.00000000
Si       2.88430743      -2.45021150       0.13560630       0.00000000
Si       0.22638409      -2.84578158       2.64954530       0.00000000
