10
Lattice="16.290000149 0.0 0.0 0.0 16.290000149 0.0 0.0 0.0 29.1751946751" Properties=species:S:1:pos:R:3:initial_magmoms:R:1 pbc="T T T"
Si      -1.36031275       1.35739521       1.33928731       0.00000000
Si       1.34892604       1.37392956      -1.33689495       0.00000000
Si       1.38263005      -1.35953246       1.32186972       0.00000000
Si      -1.35570268      -1.37199431      -1.33777020       0.00000000
Si       2.68527620      -0.04413613      -2.61873630       0.00000000
Si       0.00526167      -2.71489305       2.65406746       0.00000000
Si      -2.72577315      -0.01108860      -2.65161674       0.00000000
Si       0.01280394       2.70488774       2.68257162       0.00000000
Si       2.73220769       0.01054940       2.67326474       0.00000000
Si      -2.70492194       0.00220730       2.70489065       0.00000000
