10
Lattice="16.290000149 0.0 0.0 0.0 16.290000149 0.0 0.0 0.0 29.1751946751" Properties=species:S:1:pos:R:3:initial_magmoms:R:1 pbc="T T T"
Si      -1.38356054       1.19306332      -1.46710384       0.00000000
Si      -1.45543202      -1.18447849       1.42040602       0.00000000
Si       1.45953645      -1.29632563      -1.33321887       0.00000000
Si       1.22544100       1.47849670       1.40662950       0.00000000
H       -2.29619151       1.91648594      -0.48284947       0.00000000
Si       2.65792334       0.39557007      -2.51393900       0.00000000
Si      -0.06923446      -2.55334349       2.77281342       0.00000000
Si      -2.84803155      -2.51297687       0.06065523       0.00000000
Si       2.60856464       0.13742244       2.78017140       0.00000000
Si      -0.22638409       2.84578158      -2.64954530       0.00000000
