10
Lattice="16.290000149 0.0 0.0 0.0 16.290000149 0.0 0.0 0.0 29.1751946751" Properties=species:S:1:pos:R:3:initial_magmoms:R:1 pbc="T T T"
Si      -1.37347507       1.35863488       1.32134457       0.00000000
Si      -1.37388232      -1.36415719      -1.33164341       0.00000000
Si       1.35399223       1.37461537      -1.34293421       0.00000000
Si       1.35956341      -1.32545215       1.39133586       0.00000000
Si      -0.01400940       2.66717801       2.71069651       0.00000000
Si       2.68341914      -2.69645114       0.01803027       0.00000000
Si      -0.01326006      -2.71568963      -2.68455554       0.00000000
Si      -2.71477739       0.02577078       2.69459180       0.00000000
Si       2.70120782       0.02674818      -2.70947115       0.00000000
Si      -2.73023660       2.69337233      -0.05592885       0.00000000
