10
Lattice="16.290000149 0.0 0.0 0.0 16.290000149 0.0 0.0 0.0 29.1751946751" Properties=species:S:1:pos:R:3:initial_magmoms:R:1 pbc="T T T"
Si      -0.14205206       1.46152904       0.58773430       0.00000000
Si      -2.17763256       0.67200486      -0.45842983       0.00000000
Si       1.78753267       0.36958524       1.67127185       0.00000000
Si       0.50478638      -0.62610616      -2.48908173       0.00000000
Si       1.57649572      -2.15306561      -1.01739739       0.00000000
Si      -1.04388113      -2.44133345       1.59054409       0.00000000
Si      -1.76808567      -0.10930590      -2.63098988       0.00000000
Si       0.43105621      -1.08540271       2.95101259       0.00000000
Si      -2.84242747      -1.31608540       0.56518187       0.00000000
Si       1.26713232       2.88174990      -0.67137958       0.00000000
