10
Lattice="16.290000149 0.0 0.0 0.0 16.290000149 0.0 0.0 0.0 29.1751946751" Properties=species:S:1:pos:R:3:initial_magmoms:R:1 pbc="T T T"
Si      -1.34395759       1.34579836      -1.36627437       0.00000000
Si      -1.35671266      -1.36984240       1.34614348       0.00000000
Si       1.35641944       1.34886088       1.36773313       0.00000000
Si       1.34330599      -1.30416112      -1.42398290       0.00000000
Si      -2.76682395      -0.11512143      -2.58863625       0.00000000
Si       0.11772783       2.77983363      -2.58404407       0.00000000
Si      -2.69718419       2.67372659       0.03786940       0.00000000
Si       2.69140124      -2.69048900      -0.06412708       0.00000000
Si       0.00596214      -2.70962975       2.71008383       0.00000000
Si      -2.71179632      -0.01721853       2.71276795       0.00000000
