10
Lattice="16.290000149 0.0 0.0 0.0 16.290000149 0.0 0.0 0.0 29.1751946751" Properties=species:S:1:pos:R:3:initial_magmoms:R:1 pbc="T T T"
Si      -1.45714051      -1.29839446       1.30293502       0.00000000
Si       1.37008675      -1.38683287      -1.31145418       0.00000000
Si      -1.36306576       1.32631552      -1.38051186       0.00000000
Si       1.38318391       1.35024553       1.34036679       0.00000000
Si      -0.05582583       2.72052776       2.57272702       0.00000000
Si      -0.21752037      -2.68814324       2.67609473       0.00000000
Si       2.72448623       2.68310963      -0.03288044       0.00000000
Si       2.72407898      -0.03968244      -2.68586842       0.00000000
Si       0.00992061      -2.73302219      -2.67877885       0.00000000
Si      -0.00930159       2.67765248      -2.74267253       0.00000000
