10
Lattice="16.290000149 0.0 0.0 0.0 16.290000149 0.0 0.0 0.0 29.1751946751" Properties=species:S:1:pos:R:3:initial_magmoms:R:1 pbc="T T T"
Si       1.39994632       1.41674294       1.25809274       0.00000000
Si      -1.26123697       1.39179969      -1.43075155       0.00000000
Si       1.42987105      -1.28220220      -1.41216695       0.00000000
Si      -1.29715642      -1.59060448       1.27571456       0.00000000
Si      -2.52794738      -2.72793971      -0.34957718       0.00000000
Si       0.28211022      -2.67680540       2.59673820       0.00000000
Si      -2.58525560       2.78616018      -0.06614017       0.00000000
Si       2.86898693       0.12358343       2.53001453       0.00000000
Si      -2.56803707       0.07745895      -2.87684925       0.00000000
Si       2.86856444      -2.63189387      -0.12542416       0.00000000
