10
Lattice="16.290000149 0.0 0.0 0.0 16.290000149 0.0 0.0 0.0 29.1751946751" Properties=species:S:1:pos:R:3:initial_magmoms:R:1 pbc="T T T"
Si       1.31924566      -1.44112744       1.27629807       0.00000000
Si      -1.34879572      -1.36187659      -1.34806905       0.00000000
Si       1.38908089       1.35951454      -1.31332139       0.00000000
Si      -1.29101509       1.36778986       1.41231282       0.00000000
Si       2.74546776      -0.05142753       2.45532603       0.00000000
Si       0.01977606       2.70153362      -2.66681702       0.00000000
Si      -2.66445758       2.72003906       0.06692790       0.00000000
Si      -2.71557560      -0.00430056      -2.67618226       0.00000000
Si      -0.06470388      -2.77659795       2.61745259       0.00000000
Si       2.74163961      -0.01044189      -2.66387032       0.00000000
