10
Lattice="16.290000149 0.0 0.0 0.0 16.290000149 0.0 0.0 0.0 29.1751946751" Properties=species:S:1:pos:R:3:initial_magmoms:R:1 pbc="T T T"
Si      -1.22517091       1.32116788      -1.51629322       0.00000000
Si       1.33936381       1.45674955       1.29152752       0.00000000
Si      -1.61622865      -1.02666097       1.39591636       0.00000000
Si       1.78015493      -1.54616536      -0.63038843       0.00000000
H       -0.85216249      -1.74358388      -1.75623002       0.00000000
H       -0.20281050      -2.16868772      -1.71322578       0.00000000
H        1.34715043       0.61888969      -2.84910364       0.00000000
Si      -0.04409703      -2.30237975       2.51962816       0.00000000
Si       0.03339450       1.07601967      -3.45393460       0.00000000
Si       1.01918386      -3.41659947       0.65046097       0.00000000
