10
Lattice="16.290000149 0.0 0.0 0.0 16.290000149 0.0 0.0 0.0 29.1751946751" Properties=species:S:1:pos:R:3:initial_magmoms:R:1 pbc="T T T"
Si      -0.44162190      -1.28474344       0.66959989       0.00000000
H        0.53030466      -1.54367299      -1.80504012       0.00000000
Si       1.56067975      -0.43448688      -2.01936110       0.00000000
Si       2.72695254      -0.59168539      -0.00107948       0.00000000
Si      -1.24276411      -0.29154213       2.61336806       0.00000000
Si      -2.31878378      -1.99894592      -0.60246777       0.00000000
Si       1.56959038      -2.65044818       0.59272325       0.00000000
Si      -2.75957490       1.00396900       1.31944818       0.00000000
Si      -1.85008790       2.83792980       0.14651783       0.00000000
Si       0.29960568       1.20379843      -3.17837488       0.00000000
