10
Lattice="16.290000149 0.0 0.0 0.0 16.290000149 0.0 0.0 0.0 29.1751946751" Properties=species:S:1:pos:R:3:initial_magmoms:R:1 pbc="T T T"
Si       0.61219450      -1.30604262       0.44360884       0.00000000
Si      -1.50955848       1.48190131       0.62367814       0.00000000
H        2.01652283       0.35455185      -1.41563880       0.00000000
Si       1.11371473       1.25553547      -2.22568808       0.00000000
Si      -0.02932200       2.68310963      -0.76243536       0.00000000
Si      -2.82563573      -0.21800907      -0.51555487       0.00000000
Si      -1.60773016      -1.50831881      -2.11639780       0.00000000
Si      -0.21413205       1.63377298       2.64884510       0.00000000
Si      -0.23858334      -2.96546421      -0.95157815       0.00000000
Si       2.92172556      -1.21072168       0.07833540       0.00000000
