10
Lattice="16.28999089631971 0.0 0.0 0.0 16.28999089631971 0.0 0.0 0.0 34.474598006748145" Properties=species:S:1:pos:R:3:initial_magmoms:R:1 pbc="T T T"
Si      -1.24248717       1.46701224      -1.32146034       0.00000000
Si      -1.34092764      -1.34723024       1.36224382       0.00000000
Si       1.37389860       1.36932111       1.35524547       0.00000000
Si       1.17967293      -1.40821837      -1.49182701       0.00000000
Si       2.21366439       0.40920480      -2.77317411       0.00000000
Si       0.47066697       2.36509623      -2.67277502       0.00000000
Si      -2.67840180      -2.69996458      -0.02142253       0.00000000
Si       2.72381832      -2.68092512      -0.02676954       0.00000000
Si      -2.69876430       0.01024641       2.71647573       0.00000000
Si       0.01487277      -2.70026423       2.71602756       0.00000000
