10
Lattice="16.28999089631971 0.0 0.0 0.0 16.28999089631971 0.0 0.0 0.0 34.474598006748145" Properties=species:S:1:pos:R:3:initial_magmoms:R:1 pbc="T T T"
Si      -0.22980303      -1.83761626       1.43379933       0.00000000
Si      -1.50232896       0.20307114      -1.81753630       0.00000000
Si      -0.73994067       2.03269878       1.00521089       0.00000000
Si       2.36848455       0.08446365      -0.32788808       0.00000000
Si       0.07912053       3.43121157      -0.69369825       0.00000000
Si      -0.72850509       2.32658667      -2.64158307       0.00000000
Si      -1.15667145      -3.50297621       0.02944132       0.00000000
Si      -3.70594242      -0.34192710      -0.96435847       0.00000000
Si      -1.75001841      -1.42303087       3.13560434       0.00000000
Si       0.04360833       2.22193971       3.22082559       0.00000000
