10
Lattice="16.28999089631971 0.0 0.0 0.0 16.28999089631971 0.0 0.0 0.0 34.474598006748145" Properties=species:S:1:pos:R:3:initial_magmoms:R:1 pbc="T T T"
Si       0.90950328      -0.82036440      -2.05020549       0.00000000
Si       1.82480580       0.91166985       1.28997265       0.00000000
Si      -1.03399146      -1.81742317       1.28134710       0.00000000
Si      -1.74299742       1.95589143       0.10039909       0.00000000
Si      -1.78227261      -0.62219655      -2.82860787       0.00000000
Si      -2.21366439      -0.40920480       2.77317411       0.00000000
Si       0.53124948       2.32334496       2.75589888       0.00000000
Si       2.91685482       2.15578602      -0.43069139       0.00000000
Si      -3.45615156       1.05780744       1.45171376       0.00000000
Si      -0.74468106       3.80413854       1.36384486       0.00000000
