10
Lattice="16.28999089631971 0.0 0.0 0.0 16.28999089631971 0.0 0.0 0.0 34.474598006748145" Properties=species:S:1:pos:R:3:initial_magmoms:R:1 pbc="T T T"
Si      -1.45549521       1.22989500       1.39988665       0.00000000
Si       1.27593054      -1.48079358       1.39205402       0.00000000
Si       1.13622750       1.52684541      -1.54387131       0.00000000
Si      -0.99831636      -1.84824711      -1.26344577       0.00000000
Si       1.88644716      -0.06300972      -3.13053109       0.00000000
Si      -2.29822578      -0.62037207      -2.83742790       0.00000000
Si       2.66967036       2.61444726      -0.05883438       0.00000000
Si      -2.77477344       2.52900621      -0.10387547       0.00000000
Si      -0.09699066       2.58703119       2.76619503       0.00000000
Si       2.61838944      -0.13149288       2.76729821       0.00000000
