10
Lattice="16.28999089631971 0.0 0.0 0.0 16.28999089631971 0.0 0.0 0.0 34.474598006748145" Properties=species:S:1:pos:R:3:initial_magmoms:R:1 pbc="T T T"
Si      -1.49753970      -0.15701931       1.78640572       0.00000000
Si      -1.35824391       1.93906386      -0.58668904       0.00000000
Si       0.40640292      -1.27788534      -2.11774126       0.00000000
Si       2.00671623       0.78693732       1.30896674       0.00000000
Si       0.91636137       3.00900735      -0.85255729       0.00000000
Si       1.89420120      -1.28039400       2.47486382       0.00000000
Si      -0.34528284      -1.52552592       3.22141166       0.00000000
Si       1.45329606       0.42500610      -3.35899986       0.00000000
Si      -3.35663106      -1.25076249       0.89427157       0.00000000
Si       2.74781349       1.79455527      -1.93216440       0.00000000
