10
Lattice="16.28999089631971 0.0 0.0 0.0 16.28999089631971 0.0 0.0 0.0 34.474598006748145" Properties=species:S:1:pos:R:3:initial_magmoms:R:1 pbc="T T T"
Si       1.34904006       1.36505313       1.37764018       0.00000000
Si      -1.36409202      -1.35221661       1.37777808       0.00000000
Si      -1.40064678       1.37562534      -1.38785156       0.00000000
Si       1.40256900      -1.32480054      -1.44725133       0.00000000
Si      -0.13087386      -2.41240239      -2.93228826       0.00000000
Si       2.70000234       2.72694600      -0.00628128       0.00000000
Si      -2.72259657      -2.70935280       0.01146971       0.00000000
Si      -2.72881935       2.71221984       0.01493096       0.00000000
Si       2.72205900      -2.72056032      -0.01648921       0.00000000
Si       2.70746316       0.00351864       2.73735356       0.00000000
