10
Lattice="16.28999089631971 0.0 0.0 0.0 16.28999089631971 0.0 0.0 0.0 34.474598006748145" Properties=species:S:1:pos:R:3:initial_magmoms:R:1 pbc="T T T"
Si      -1.35713619       1.35664749       1.35985128       0.00000000
Si       1.35785295      -1.35936792       1.35943758       0.00000000
Si      -1.35850455      -1.35713619      -1.36630837       0.00000000
Si       1.36409202       1.35221661      -1.37777808       0.00000000
Si       0.09699066      -2.58703119      -2.76619503       0.00000000
Si       2.71313208       2.71726974      -0.00013790       0.00000000
Si       0.00042354       2.71391400       2.71670326       0.00000000
Si      -2.71391400       2.71723716      -0.00165478       0.00000000
Si      -2.71477737      -0.00061902       2.71684116       0.00000000
Si       2.71502172      -0.00073305       2.71708249       0.00000000
