10
Lattice="16.28999089631971 0.0 0.0 0.0 16.28999089631971 0.0 0.0 0.0 34.474598006748145" Properties=species:S:1:pos:R:3:initial_magmoms:R:1 pbc="T T T"
Si      -1.32817257       1.33659450       1.40278252       0.00000000
Si       1.40064678      -1.37562534       1.38785156       0.00000000
Si      -1.51847235      -1.18110645      -1.49434507       0.00000000
Si       1.00631475       1.79572815      -1.33286597       0.00000000
Si       0.42893199      -1.60953345      -2.81851512       0.00000000
Si       1.46246733       0.55501659      -3.28899023       0.00000000
Si      -2.69930187       2.60398908      -0.10199660       0.00000000
Si      -2.64122802      -2.78586693      -0.10444085       0.00000000
Si      -2.67735924      -0.01060479       2.76397486       0.00000000
Si       0.03660363       2.70034443       2.76166506       0.00000000
