10
Lattice="16.28999089631971 0.0 0.0 0.0 16.28999089631971 0.0 0.0 0.0 34.474598006748145" Properties=species:S:1:pos:R:3:initial_magmoms:R:1 pbc="T T T"
Si       1.35628911       1.35752715      -1.35599012       0.00000000
Si       1.35355239      -1.35876519       1.35774833       0.00000000
Si      -1.35661491       1.35555606       1.36019602       0.00000000
Si      -1.35874890      -1.35715248      -1.35661066       0.00000000
Si      -0.00278559      -2.68236027       2.72473585       0.00000000
Si       0.01576872       2.70257616       2.72066785       0.00000000
Si      -2.71381626      -2.71352304       0.00006895       0.00000000
Si       2.71339272       0.00048870      -2.71401424       0.00000000
Si       2.71339272      -2.71474479      -0.00037922       0.00000000
Si      -0.00086337      -2.71510317      -2.71397977       0.00000000
