10
Lattice="16.28999089631971 0.0 0.0 0.0 16.28999089631971 0.0 0.0 0.0 34.474598006748145" Properties=species:S:1:pos:R:3:initial_magmoms:R:1 pbc="T T T"
Si       1.35661491      -1.35555606      -1.36019602       0.00000000
Si       1.37238363       1.34702010       1.36047182       0.00000000
Si      -1.35915615       1.36231641      -1.36078209       0.00000000
Si      -1.34809524      -1.36037790       1.38081185       0.00000000
Si       0.03916116       2.71275741       2.66126808       0.00000000
Si      -2.69299764       0.04637763       2.70763644       0.00000000
Si       2.71016730      -2.71432125      -0.00244770       0.00000000
Si       2.71551042       2.71191033       0.00124109       0.00000000
Si       2.71290402       0.00197109      -2.71618615       0.00000000
Si      -0.00213399      -2.71270854      -2.71680669       0.00000000
