10
Lattice="16.28999089631971 0.0 0.0 0.0 16.28999089631971 0.0 0.0 0.0 34.474598006748145" Properties=species:S:1:pos:R:3:initial_magmoms:R:1 pbc="T T T"
Si       0.17203869       2.17098459       0.83104512       0.00000000
Si       1.52148600       0.25327692      -1.80429804       0.00000000
Si      -2.39518386      -0.13455540      -0.34005762       0.00000000
Si       0.96014889      -1.94285943       1.25980594       0.00000000
Si      -0.97679727      -2.19945951       2.70218945       0.00000000
Si      -2.85182514      -2.43102186      -0.64339978       0.00000000
Si       1.61681508       2.12625225       2.72166761       0.00000000
Si      -1.84790502       2.59884144       2.10939841       0.00000000
Si      -3.39429843       0.60144309       1.76520383       0.00000000
Si       0.86786604       3.69263349      -0.94205339       0.00000000
