10
Lattice="16.28999089631971 0.0 0.0 0.0 16.28999089631971 0.0 0.0 0.0 34.474598006748145" Properties=species:S:1:pos:R:3:initial_magmoms:R:1 pbc="T T T"
Si       1.39885488      -1.37463165       1.28583428       0.00000000
Si       1.35369900       1.34661285      -1.37429614       0.00000000
Si      -1.36029645      -1.37109672      -1.37801940       0.00000000
Si      -1.33589403       1.47010312       1.44048741       0.00000000
Si      -0.10461438      -2.53633671       2.57842558       0.00000000
Si       2.71155195       2.70714292       0.00641228       0.00000000
Si      -2.70529333      -2.71901277      -0.02364959       0.00000000
Si      -2.72372872       2.70542921      -0.00713625       0.00000000
Si      -0.00039096       2.70230316      -2.73604353       0.00000000
Si       2.71581993      -0.01097946      -2.73380268       0.00000000
