10
Lattice="16.28999089631971 0.0 0.0 0.0 16.28999089631971 0.0 0.0 0.0 34.474598006748145" Properties=species:S:1:pos:R:3:initial_magmoms:R:1 pbc="T T T"
Si      -1.35408996       1.35569031      -1.36174738       0.00000000
Si      -1.35369900      -1.34661285       1.37429614       0.00000000
Si       1.36212093      -1.35759231      -1.35950653       0.00000000
Si       1.35785295       1.36053007       1.38070842       0.00000000
Si       0.04515588      -2.72124450       2.66013042       0.00000000
Si      -2.71261080       2.71401893      -0.00089634       0.00000000
Si      -2.71155195      -0.00127820      -2.71780645       0.00000000
Si       0.00324171       2.71374200      -2.71794435       0.00000000
Si      -2.71399545      -2.71770957      -0.00372326       0.00000000
Si       2.72210787       2.71219445      -0.00168926       0.00000000
