10
Lattice="16.28999089631971 0.0 0.0 0.0 16.28999089631971 0.0 0.0 0.0 34.474598006748145" Properties=species:S:1:pos:R:3:initial_magmoms:R:1 pbc="T T T"
Si      -0.37186812       1.11211830      -1.96970726       0.00000000
Si      -1.91759364      -0.33910893       1.25884065       0.00000000
Si       1.41939657       1.00216080       1.54770347       0.00000000
Si       0.79830774      -2.10720924      -0.68149423       0.00000000
Si      -2.35445886      -0.46011105      -2.27584186       0.00000000
Si       3.13504308      -1.60751349      -0.69162977       0.00000000
Si       3.54752217       0.49350555       0.68021867       0.00000000
Si      -3.54601534      -1.22510574      -0.21270839       0.00000000
Si      -2.72339478       1.76076981       1.97143099       0.00000000
Si      -0.99665478       3.39548175      -1.47927135       0.00000000
