10
Lattice="16.28999089631971 0.0 0.0 0.0 16.28999089631971 0.0 0.0 0.0 34.474598006748145" Properties=species:S:1:pos:R:3:initial_magmoms:R:1 pbc="T T T"
Si      -1.66257369       1.61178147       0.05684864       0.00000000
Si       0.37641303       0.16824312       2.30997173       0.00000000
Si      -0.37931265      -2.03488164      -1.11225458       0.00000000
Si       1.72463859       1.03503402      -1.23981066       0.00000000
Si       2.07482472      -2.41391736      -0.17092515       0.00000000
Si       1.11469212      -1.66803084      -3.00342866       0.00000000
Si       0.48242835       2.18966922      -2.91289831       0.00000000
Si      -0.86750766       3.30095673       1.44710653       0.00000000
Si      -3.42075339       0.61805889       1.35326663       0.00000000
Si      -0.60905052      -1.72261863       3.29036090       0.00000000
