10
Lattice="16.28999089631971 0.0 0.0 0.0 16.28999089631971 0.0 0.0 0.0 34.474598006748145" Properties=species:S:1:pos:R:3:initial_magmoms:R:1 pbc="T T T"
Si      -0.05950737       1.34149779      -1.93892142       0.00000000
Si       1.82071701       0.19678320       1.51278068       0.00000000
Si       1.18441332      -1.79121582      -1.07605623       0.00000000
Si      -1.82130345       0.23892543       1.55177147       0.00000000
Si       2.75897214       1.97242971       0.19440237       0.00000000
Si      -0.85457340      -0.34767747      -3.32917932       0.00000000
Si      -2.61275310      -1.34140005      -2.03276133       0.00000000
Si      -0.89443503       1.90428538       2.95612948       0.00000000
Si      -2.06493669      -2.98478412      -0.30789281       0.00000000
Si       0.19894977      -3.68207757      -0.09566706       0.00000000
