10
Lattice="16.28999089631971 0.0 0.0 0.0 16.28999089631971 0.0 0.0 0.0 34.474598006748145" Properties=species:S:1:pos:R:3:initial_magmoms:R:1 pbc="T T T"
Si       1.97110629      -0.43045348       1.28124915       0.00000000
Si      -1.46065914       1.46977665      -1.19413179       0.00000000
Si      -0.32544162       2.25050748       0.92716036       0.00000000
Si      -1.05249690      -2.17360306       0.46899269       0.00000000
Si       1.41902190      -0.99410932      -2.44218189       0.00000000
Si      -0.38208195       0.50993076      -3.40209313       0.00000000
Si       3.63574881      -0.70081958      -0.37835892       0.00000000
Si       2.45386044       1.51667556       2.49961660       0.00000000
Si      -3.18062250      -1.66494781       1.33647749       0.00000000
Si      -1.98604422       2.15009592       2.51454411       0.00000000
