10
Lattice="16.28999089631971 0.0 0.0 0.0 16.28999089631971 0.0 0.0 0.0 34.474598006748145" Properties=species:S:1:pos:R:3:initial_magmoms:R:1 pbc="T T T"
Si       0.39309399       2.11014307      -1.13207748       0.00000000
Si       0.49669839      -0.10183042       2.37609405       0.00000000
Si       1.49263641      -1.37734135      -1.33837359       0.00000000
Si      -2.32178112      -0.73276234       0.24277025       0.00000000
Si       2.94308172      -2.21831260       0.38184086       0.00000000
Si      -1.90539243       2.47964914      -2.07168318       0.00000000
Si      -2.26227375      -2.07426013       2.18169168       0.00000000
Si       2.53451223       1.84622878      -2.08661069       0.00000000
Si      -0.55842120       1.75210516       3.37613374       0.00000000
Si       0.27036513      -2.99868505      -2.44414694       0.00000000
