10
Lattice="16.28999089631971 0.0 0.0 0.0 16.28999089631971 0.0 0.0 0.0 34.474598006748145" Properties=species:S:1:pos:R:3:initial_magmoms:R:1 pbc="T T T"
Si       0.27883593      -2.10579690       1.01634619       0.00000000
Si      -1.10030805       1.57462398       1.36543617       0.00000000
Si      -1.14601779      -0.33272325      -2.10912261       0.00000000
Si       2.19553362       1.02669354      -0.46747581       0.00000000
Si       2.19162402      -2.55580831      -0.35953578       0.00000000
Si      -0.38683863       3.43531665      -0.07436175       0.00000000
Si      -0.08501751       1.39502673      -3.25195617       0.00000000
Si       0.63312714      -1.31571072       3.33590187       0.00000000
Si       2.11273155      -1.52179062      -2.55732711       0.00000000
Si       2.18921310       0.87461010      -2.82595333       0.00000000
