10
Lattice="16.28999089631971 0.0 0.0 0.0 16.28999089631971 0.0 0.0 0.0 34.474598006748145" Properties=species:S:1:pos:R:3:initial_magmoms:R:1 pbc="T T T"
Si      -0.35429121      -0.79008618      -2.31955567       0.00000000
Si      -2.25776142       1.03244391       0.11004298       0.00000000
Si       1.08924714       2.22128811       0.50605291       0.00000000
Si       0.48026178      -1.47566942       2.01686853       0.00000000
Si      -0.63312714       1.31571072      -3.33590187       0.00000000
Si       2.74035267       1.53694521       2.19065508       0.00000000
Si       1.47590658       0.07472712       3.53558372       0.00000000
Si      -1.73343519       2.89033470      -1.97046570       0.00000000
Si       3.19696137       2.45648313      -0.78267724       0.00000000
Si       1.55849688      -1.24009759      -3.69543765       0.00000000
