10
Lattice="16.28999089631971 0.0 0.0 0.0 16.28999089631971 0.0 0.0 0.0 34.474598006748145" Properties=species:S:1:pos:R:3:initial_magmoms:R:1 pbc="T T T"
Si      -1.35710361      -1.35741312      -1.35647277       0.00000000
Si       1.35770634       1.35733167      -1.35619697       0.00000000
Si      -1.35984033       1.35597960       1.35812755       0.00000000
Si       1.36013355      -1.35889551       1.36288504       0.00000000
Si       2.70462870       0.02228472       2.71201472       0.00000000
Si      -2.71425609      -0.00035838      -2.71360055       0.00000000
Si      -2.71339272       2.71474479       0.00037922       0.00000000
Si       0.00068418      -2.71464705      -2.71349713       0.00000000
Si       0.00000000       2.71523349      -2.71363502       0.00000000
Si      -2.71472850      -2.71497285       0.00075844       0.00000000
