10
Lattice="16.28999089631971 0.0 0.0 0.0 16.28999089631971 0.0 0.0 0.0 34.474598006748145" Properties=species:S:1:pos:R:3:initial_magmoms:R:1 pbc="T T T"
Si      -1.34607528      -1.34605899      -1.38484538       0.00000000
Si       1.36795275       1.36853919      -1.38198398       0.00000000
Si      -1.31238756       1.46869011       1.35612802       0.00000000
Si       1.15800723      -1.26294741       1.75879155       0.00000000
Si       0.49324491       2.42134560       2.72818331       0.00000000
Si       2.16629307       0.64340613       2.91872452       0.00000000
Si       2.70348840      -2.69164068       0.00972184       0.00000000
Si      -2.71033020      -2.69772337      -0.00244770       0.00000000
Si       0.00961110      -2.70289707      -2.74621354       0.00000000
Si      -2.70690930       0.01246185      -2.74411059       0.00000000
