10
Lattice="16.28999089631971 0.0 0.0 0.0 16.28999089631971 0.0 0.0 0.0 34.474598006748145" Properties=species:S:1:pos:R:3:initial_magmoms:R:1 pbc="T T T"
Si      -2.07803385      -1.06745112       0.70631596       0.00000000
Si       1.28620953       0.45396972      -2.02869333       0.00000000
Si      -0.80164719       2.32650522      -0.10783660       0.00000000
Si       1.46559501      -0.85240683       1.86921375       0.00000000
Si      -2.36744199      -1.20656772      -1.97687798       0.00000000
Si       0.88651809       2.80337868       1.54539367       0.00000000
Si       0.78350013       1.04752845       3.21089690       0.00000000
Si      -0.51942294      -0.49868577      -3.40074862       0.00000000
Si       2.95925769      -1.32396975      -1.83815212       0.00000000
Si      -2.69394246       0.54268506       2.56239488       0.00000000
