10
Lattice="16.28999089631971 0.0 0.0 0.0 16.28999089631971 0.0 0.0 0.0 34.474598006748145" Properties=species:S:1:pos:R:3:initial_magmoms:R:1 pbc="T T T"
Si       1.38805461       0.99442305       1.58910748       0.00000000
Si      -2.03701563      -0.34497333       1.17730818       0.00000000
Si       0.10301796       1.75585023      -1.66550324       0.00000000
Si       0.68209488      -1.89993528      -1.34168316       0.00000000
Si      -0.78350013      -1.04752845      -3.21089690       0.00000000
Si       3.13022124       1.60339212       0.16075514       0.00000000
Si      -3.47744259      -0.50484339      -0.64850203       0.00000000
Si       0.71102592       3.25775565       1.84452992       0.00000000
Si      -2.54677860       1.71082467       2.26094882       0.00000000
Si       1.55619999      -0.40692420       3.49696728       0.00000000
