10
Lattice="16.28999089631971 0.0 0.0 0.0 16.28999089631971 0.0 0.0 0.0 34.474598006748145" Properties=species:S:1:pos:R:3:initial_magmoms:R:1 pbc="T T T"
Si      -0.70789824      -0.20846313      -2.20044587       0.00000000
Si      -0.44070966       2.29024368       0.18609398       0.00000000
Si       2.36231064      -0.09238059      -0.16151358       0.00000000
Si      -0.71346942      -1.86069267       1.43979792       0.00000000
Si       0.39317544       2.34168750       2.37792120       0.00000000
Si       2.66488110       1.63479924       1.43404065       0.00000000
Si       0.38683863      -3.43531665       0.07436175       0.00000000
Si       2.58237225      -2.40862311      -0.39311406       0.00000000
Si       0.30182112      -2.04028992      -3.17759442       0.00000000
Si      -3.08405538      -1.63056384       1.51395282       0.00000000
