10
Lattice="16.28999089631971 0.0 0.0 0.0 16.28999089631971 0.0 0.0 0.0 34.474598006748145" Properties=species:S:1:pos:R:3:initial_magmoms:R:1 pbc="T T T"
Si      -1.35628911      -1.35752715       1.35599012       0.00000000
Si       1.35710361      -1.35703845      -1.35802412       0.00000000
Si      -1.35749457       1.35760860      -1.35840334       0.00000000
Si       1.35863487       1.35969372       1.35698989       0.00000000
Si       2.70821250      -0.00024435       2.71532428       0.00000000
Si       0.00260640       2.70993924       2.71742723       0.00000000
Si      -0.00019548       2.71409319      -2.71494506       0.00000000
Si      -2.71290402      -0.00197109       2.71618615       0.00000000
Si       2.71363707      -0.00057015      -2.71553113       0.00000000
Si      -2.71474479       2.71482624      -0.00072397       0.00000000
