10
Lattice="16.28999089631971 0.0 0.0 0.0 16.28999089631971 0.0 0.0 0.0 34.474598006748145" Properties=species:S:1:pos:R:3:initial_magmoms:R:1 pbc="T T T"
Si      -0.83388510      -0.05144382      -2.19182722       0.00000000
Si       1.27575135       1.76713920       1.03175635       0.00000000
Si      -1.39870827      -1.49877774       1.42590465       0.00000000
Si       2.27170566      -0.70688826      -0.94388055       0.00000000
Si       1.34752509       2.72719035      -1.28114573       0.00000000
Si      -0.39317544      -2.34168750      -2.37792120       0.00000000
Si      -2.14892793       0.09107739       3.01256443       0.00000000
Si       2.96562708       1.27586538      -2.20310042       0.00000000
Si       1.96913520      -2.43406809      -2.53943478       0.00000000
Si      -3.64643505      -1.79954001       0.27662433       0.00000000
