10
Lattice="16.28999089631971 0.0 0.0 0.0 16.28999089631971 0.0 0.0 0.0 34.474598006748145" Properties=species:S:1:pos:R:3:initial_magmoms:R:1 pbc="T T T"
Si       1.35819504      -1.35523026       1.36002365       0.00000000
Si      -1.35571896       1.36179191       1.35926521       0.00000000
Si       1.37365425       1.36399428      -1.35284259       0.00000000
Si      -1.36542780      -1.34697123      -1.38409383       0.00000000
Si       0.07861554      -2.57079006      -2.83675078       0.00000000
Si      -2.71639008      -2.70886410      -0.00017237       0.00000000
Si       0.00110772      -2.71212210       2.71691011       0.00000000
Si      -2.71428867       0.00293220       2.71680669       0.00000000
Si       2.71529865       2.71665139       0.00372326       0.00000000
Si       2.71862181      -2.71404432       0.00062054       0.00000000
