10
Lattice="16.28999089631971 0.0 0.0 0.0 16.28999089631971 0.0 0.0 0.0 34.474598006748145" Properties=species:S:1:pos:R:3:initial_magmoms:R:1 pbc="T T T"
Si      -1.35602847       1.35024552       1.36043735       0.00000000
Si       1.34957763      -1.35993807       1.35833440       0.00000000
Si       1.35646830       1.35550719      -1.35754148       0.00000000
Si      -1.35863487      -1.35969372      -1.35698989       0.00000000
Si      -2.69915526      -0.01464471       2.71966808       0.00000000
Si       2.71437012       2.71261080       0.00124109       0.00000000
Si      -0.00131949       2.71306692      -2.71525533       0.00000000
Si       2.71407690      -0.00198738      -2.71515191       0.00000000
Si      -2.71541268       2.71474479       0.00082739       0.00000000
Si      -2.71612944      -0.00208512      -2.71539323       0.00000000
