10
Lattice="16.28999089631971 0.0 0.0 0.0 16.28999089631971 0.0 0.0 0.0 34.474598006748145" Properties=species:S:1:pos:R:3:initial_magmoms:R:1 pbc="T T T"
Si      -1.96957503      -1.14728841      -0.59606613       0.00000000
Si      -1.35962856       1.55577645       1.16755186       0.00000000
Si       1.72656081      -1.26804618       1.06685151       0.00000000
Si       1.08346419       0.49041045      -2.35627114       0.00000000
Si      -1.00944243      -1.89317493       2.23643737       0.00000000
Si      -3.01431789       0.60939261      -1.87738423       0.00000000
Si       1.82778687      -1.67650164      -2.84491437       0.00000000
Si      -2.60183880       2.71041165      -0.50553579       0.00000000
Si       1.40975289      -3.54753846       0.55266259       0.00000000
Si      -0.13735728       3.17712015       2.27332521       0.00000000
