10
Lattice="16.28999089631971 0.0 0.0 0.0 16.28999089631971 0.0 0.0 0.0 34.474598006748145" Properties=species:S:1:pos:R:3:initial_magmoms:R:1 pbc="T T T"
Si      -1.41389055      -1.69318521      -0.86524394       0.00000000
Si      -1.37425698       1.88664264       0.46702764       0.00000000
Si       0.74598426      -0.53600616       2.21830372       0.00000000
Si       1.79439467       0.51460110      -1.65547112       0.00000000
Si      -2.59577892       0.52430994       2.01273158       0.00000000
Si      -3.07853307      -1.42281910       0.79436413       0.00000000
Si       2.09696350       2.78231571      -0.22767037       0.00000000
Si       0.29825361       3.30447537       1.28814407       0.00000000
Si       1.66830763      -2.70189917       1.86476652       0.00000000
Si       3.67345106      -0.61388050      -0.76068243       0.00000000
