10
Lattice="16.28999089631971 0.0 0.0 0.0 16.28999089631971 0.0 0.0 0.0 34.474598006748145" Properties=species:S:1:pos:R:3:initial_magmoms:R:1 pbc="T T T"
Si       1.40576184      -0.86805663      -1.65674668       0.00000000
Si      -2.20362975      -0.66486820      -0.55183520       0.00000000
Si       0.07648155       2.39640072      -0.26862622       0.00000000
Si       0.07889247      -1.03401769       2.19779133       0.00000000
Si       0.08280207       2.54848416       2.08985130       0.00000000
Si      -3.25874934       1.18906737       0.44820450       0.00000000
Si      -2.11273155       1.52179062       2.55732711       0.00000000
Si       1.44671490       0.91348944      -3.26846951       0.00000000
Si      -2.19774906       2.91681735      -0.69462906       0.00000000
Si       0.24275358      -2.78135038      -2.54608838       0.00000000
