10
Lattice="16.28999089631971 0.0 0.0 0.0 16.28999089631971 0.0 0.0 0.0 34.474598006748145" Properties=species:S:1:pos:R:3:initial_magmoms:R:1 pbc="T T T"
Si       0.39550491      -0.89314812      -2.09471222       0.00000000
Si       1.28673081       1.93987836      -0.28944889       0.00000000
Si       1.51918911      -1.17457416       1.43114479       0.00000000
Si      -2.10771423      -0.23519502       1.28873014       0.00000000
Si      -0.45660870      -0.91953792       2.97333232       0.00000000
Si       2.89998557       0.92595618       1.23236414       0.00000000
Si      -1.63455489      -0.11407887      -3.02070044       0.00000000
Si       1.44782262      -3.21727826       0.22870461       0.00000000
Si       0.45219411      -3.20110066      -1.93537054       0.00000000
Si       0.23742675       3.95201916       0.41652233       0.00000000
