10
Lattice="16.28999089631971 0.0 0.0 0.0 16.28999089631971 0.0 0.0 0.0 34.474598006748145" Properties=species:S:1:pos:R:3:initial_magmoms:R:1 pbc="T T T"
Si      -0.07136649      -2.04270410      -1.20244018       0.00000000
Si      -1.51918911       1.17457416      -1.43114479       0.00000000
Si      -1.97579781       0.25503624       1.54218753       0.00000000
Si       1.38079646       2.10053034      -0.19878064       0.00000000
Si       2.35537992      -1.32261605      -1.07085056       0.00000000
Si      -0.62812611       1.54836450       2.94347182       0.00000000
Si      -0.23245830       3.11445252      -1.72059367       0.00000000
Si       0.49280508       3.20152257       1.68860989       0.00000000
Si      -1.12368420       0.28142604      -3.52585701       0.00000000
Si      -3.62690334       0.93937914      -0.14241464       0.00000000
