10
Lattice="16.28999089631971 0.0 0.0 0.0 16.28999089631971 0.0 0.0 0.0 34.474598006748145" Properties=species:S:1:pos:R:3:initial_magmoms:R:1 pbc="T T T"
Si      -1.35749457      -1.35648459      -1.35698989       0.00000000
Si       1.35738054      -1.35668007       1.35823097       0.00000000
Si      -1.35791811       1.35782037       1.35792070       0.00000000
Si       1.35842310       1.35948195      -1.35747253       0.00000000
Si       0.00125433      -2.71067229      -2.71522086       0.00000000
Si       2.71450044       0.00195480       2.71456584       0.00000000
Si      -2.71494027      -2.71415835       0.00062054       0.00000000
Si       2.71492398      -2.71420722       0.00041370       0.00000000
Si       0.00273672       2.71437012       2.71528981       0.00000000
Si      -2.71562445       0.00048870       2.71411767       0.00000000
