10
Lattice="16.28999089631971 0.0 0.0 0.0 16.28999089631971 0.0 0.0 0.0 34.474598006748145" Properties=species:S:1:pos:R:3:initial_magmoms:R:1 pbc="T T T"
Si       0.91872342      -0.44207802       2.09815968       0.00000000
Si      -1.67251059      -1.41783273      -0.82111643       0.00000000
Si      -0.38266839       2.35398645      -0.03419882       0.00000000
Si       1.79870989      -0.52215966      -1.51581445       0.00000000
Si      -0.29825361      -3.30447537      -1.28814407       0.00000000
Si       2.04269662       1.48299273      -2.63768744       0.00000000
Si      -0.34938792       1.03487112      -3.49186503       0.00000000
Si       0.23459229       2.93140179      -2.22685343       0.00000000
Si       2.19133310       1.56253680       2.60593632       0.00000000
Si       0.75069207       3.25547505       1.81722603       0.00000000
