10
Lattice="16.28999089631971 0.0 0.0 0.0 16.28999089631971 0.0 0.0 0.0 34.474598006748145" Properties=species:S:1:pos:R:3:initial_magmoms:R:1 pbc="T T T"
Si       0.74223986       2.19993192       0.19798773       0.00000000
Si       0.84437164      -1.23039999       1.82474149       0.00000000
Si       1.21947822      -0.94943007      -1.80495306       0.00000000
Si      -2.37213351      -0.19202652      -0.44813555       0.00000000
Si       0.24511563      -3.09596337      -1.52829426       0.00000000
Si       0.45807480      -3.33114210       0.83087275       0.00000000
Si      -2.77118964       2.08340955      -0.65394902       0.00000000
Si       0.04728987       3.11725440      -1.84222012       0.00000000
Si      -0.38643138       3.16055322       2.02014362       0.00000000
Si      -2.53674396      -0.53906868      -2.77665462       0.00000000
