10
Lattice="16.28999089631971 0.0 0.0 0.0 16.28999089631971 0.0 0.0 0.0 34.474598006748145" Properties=species:S:1:pos:R:3:initial_magmoms:R:1 pbc="T T T"
Si      -1.28673081      -1.93987836       0.28944889       0.00000000
Si      -1.04930406       2.01214080       0.70597121       0.00000000
Si       1.36917028       0.09723501      -1.99587349       0.00000000
Si       1.61325476      -1.01392218       1.52181303       0.00000000
Si      -0.89122590      -2.83302648      -1.80526333       0.00000000
Si       0.72526338       0.08707005       3.40920356       0.00000000
Si       0.23245830      -3.11445252       1.72059367       0.00000000
Si      -2.83877685       1.98946512      -0.90409684       0.00000000
Si       0.98287344      -2.00350710      -2.98974223       0.00000000
Si      -1.17625203       1.72967220       3.11747069       0.00000000
