10
Lattice="16.28999089631971 0.0 0.0 0.0 16.28999089631971 0.0 0.0 0.0 34.474598006748145" Properties=species:S:1:pos:R:3:initial_magmoms:R:1 pbc="T T T"
Si      -1.35674523      -1.35607734      -1.35792070       0.00000000
Si      -1.35692442       1.35759231       1.35688646       0.00000000
Si       1.35749410       1.35785295      -1.35678304       0.00000000
Si       1.35717339      -1.35765747       1.35761043       0.00000000
Si      -2.71243161      -0.00118917       2.71484164       0.00000000
Si      -0.00066789      -2.71360449       2.71411767       0.00000000
Si       2.71157543       0.00224802      -2.71677221       0.00000000
Si       2.71433007      -2.71492398      -0.00044817       0.00000000
Si       0.00232947       2.71298547      -2.71639299       0.00000000
Si      -0.00192222       2.71555929       2.71384187       0.00000000
