10
Lattice="16.28999089631971 0.0 0.0 0.0 16.28999089631971 0.0 0.0 0.0 34.474598006748145" Properties=species:S:1:pos:R:3:initial_magmoms:R:1 pbc="T T T"
Si      -1.12932054      -1.56802653       1.26173652       0.00000000
Si       1.16861202      -1.48320450      -1.41632070       0.00000000
Si      -1.51860267       1.23869160      -1.39373983       0.00000000
Si       1.88867889       0.79933401       1.29900358       0.00000000
Si      -0.71653194      -0.44237124       3.34190045       0.00000000
Si      -3.15773505      -0.39785067       1.73927892       0.00000000
Si       2.54135227      -0.13264947      -2.77279347       0.00000000
Si       2.45301336      -2.86125705       0.00144793       0.00000000
Si      -0.16891101       2.57675220      -2.77992971       0.00000000
Si       2.69079346       2.68249059      -0.01682361       0.00000000
