10
Lattice="16.28999089631971 0.0 0.0 0.0 16.28999089631971 0.0 0.0 0.0 34.474598006748145" Properties=species:S:1:pos:R:3:initial_magmoms:R:1 pbc="T T T"
Si      -1.74216663      -0.60896907       1.42835234       0.00000000
Si       2.00612979      -1.20761028       0.21363920       0.00000000
Si       0.31680792       2.27949228       0.51418892       0.00000000
Si       2.62339047      -0.63019494      -1.97901540       0.00000000
Si      -2.41919532       1.65436353       1.68377478       0.00000000
Si      -3.13022124      -1.60339212      -0.16075514       0.00000000
Si      -3.02720328       0.15245811      -1.82625838       0.00000000
Si       0.60468480       2.17052847       2.86973609       0.00000000
Si       2.43696771       2.77680969      -0.37570438       0.00000000
Si       3.13949025      -0.30612168       2.06506405       0.00000000
