10
Lattice="16.28999089631971 0.0 0.0 0.0 16.28999089631971 0.0 0.0 0.0 34.474598006748145" Properties=species:S:1:pos:R:3:initial_magmoms:R:1 pbc="T T T"
Si      -2.16002142       0.08371431       0.93664088       0.00000000
Si      -0.28787688       0.10896381      -2.35554717       0.00000000
Si       1.02273507       2.08829655       0.58265551       0.00000000
Si       1.00756908      -1.98653292       0.97111549       0.00000000
Si      -3.02388012      -0.51616494      -1.18596131       0.00000000
Si       2.63207304      -0.74815083       2.27549711       0.00000000
Si       2.53480545      -2.47665015      -0.80467204       0.00000000
Si      -0.60468480      -2.17052847      -2.86973609       0.00000000
Si       2.03897043       1.52687799       2.68222865       0.00000000
Si      -2.38246137       2.32432236       1.62716746       0.00000000
