10
Lattice="16.28999089631971 0.0 0.0 0.0 16.28999089631971 0.0 0.0 0.0 34.474598006748145" Properties=species:S:1:pos:R:3:initial_magmoms:R:1 pbc="T T T"
Si       1.12867124      -0.96062130      -1.82215590       0.00000000
Si       0.45164025       2.30382954       0.29389611       0.00000000
Si      -2.28322269      -0.51596946      -0.36284535       0.00000000
Si       0.47284983      -0.73347354       2.20820266       0.00000000
Si      -0.89821431       2.81927772       2.20396228       0.00000000
Si      -1.18767132      -2.47604742       2.50644257       0.00000000
Si      -0.98184717       0.82774377       3.51234296       0.00000000
Si      -2.38475826      -1.07714367      -2.67409264       0.00000000
Si      -0.65739924       3.39569937      -1.48168458       0.00000000
Si       0.38643138      -3.16055322      -2.02014362       0.00000000
