10
Lattice="16.28999089631971 0.0 0.0 0.0 16.28999089631971 0.0 0.0 0.0 34.474598006748145" Properties=species:S:1:pos:R:3:initial_magmoms:R:1 pbc="T T T"
Si      -1.35708732      -1.35689184       1.35688646       0.00000000
Si       1.35803214       1.35775521       1.35667961       0.00000000
Si      -1.35819504       1.35523026      -1.36002365       0.00000000
Si       1.36042677      -1.35881406      -1.35940311       0.00000000
Si       0.00117288      -2.71420722       2.71387635       0.00000000
Si       2.71511058      -0.00001629       2.71384187       0.00000000
Si      -2.71469592       0.00060273       2.71449689       0.00000000
Si       2.71559140      -2.71394658       0.00020685       0.00000000
Si       2.71363493       2.71591122      -0.00058607       0.00000000
Si       0.00060273       2.71558093       2.71432452       0.00000000
