10
Lattice="16.28999089631971 0.0 0.0 0.0 16.28999089631971 0.0 0.0 0.0 34.474598006748145" Properties=species:S:1:pos:R:3:initial_magmoms:R:1 pbc="T T T"
Si       1.35027810      -1.35039213      -1.35381822       0.00000000
Si      -1.34969166      -1.33806060       1.38618989       0.00000000
Si      -1.36269108       1.36355445      -1.35137052       0.00000000
Si       1.34532594       1.35601218       1.38360429       0.00000000
Si      -2.21866542       0.47649879       2.66974884       0.00000000
Si      -0.43862454       2.32880211       2.70932570       0.00000000
Si       0.16891101      -2.57675220       2.77992971       0.00000000
Si      -0.00472410      -2.70835911      -2.71077363       0.00000000
Si       2.71026328      -2.70940167       0.00713625       0.00000000
Si       2.70921360       0.00583182      -2.71080811       0.00000000
