10
Lattice="16.28999089631971 0.0 0.0 0.0 16.28999089631971 0.0 0.0 0.0 34.474598006748145" Properties=species:S:1:pos:R:3:initial_magmoms:R:1 pbc="T T T"
Si       0.74432268      -2.16691209      -0.48864323       0.00000000
Si       1.74948084       1.58742792       0.34640095       0.00000000
Si      -1.45469700       1.08185148      -1.65174786       0.00000000
Si      -1.08346419      -0.49041045       2.35627114       0.00000000
Si      -1.69688043      -2.12239152      -2.09126476       0.00000000
Si      -1.21378419       3.39949494      -1.06043923       0.00000000
Si       2.97232227      -2.35090764       0.38259930       0.00000000
Si      -3.05303922      -1.63769886       1.76020501       0.00000000
Si       0.64309662      -1.75845663       3.42312265       0.00000000
Si       2.76325641      -1.26113922       2.53322935       0.00000000
