10
Lattice="16.28999089631971 0.0 0.0 0.0 16.28999089631971 0.0 0.0 0.0 34.474598006748145" Properties=species:S:1:pos:R:3:initial_magmoms:R:1 pbc="T T T"
Si      -0.78804504      -2.10505896      -0.72586307       0.00000000
Si       0.19157040       0.81741591      -2.23264516       0.00000000
Si       2.21506533      -0.22113675       0.91898987       0.00000000
Si      -1.75956435      -0.70478685       1.69628907       0.00000000
Si      -0.85981878      -3.06511011       1.58703901       0.00000000
Si       2.45588040       0.35528490      -2.76665699       0.00000000
Si       0.04971708       3.12492913      -2.10781257       0.00000000
Si       3.56491989      -0.73658493      -0.99107630       0.00000000
Si       2.13143247      -2.21267070       2.22737055       0.00000000
Si      -1.60060653      -0.05302395      -3.47059420       0.00000000
