10
Lattice="16.28999089631971 0.0 0.0 0.0 16.28999089631971 0.0 0.0 0.0 34.474598006748145" Properties=species:S:1:pos:R:3:initial_magmoms:R:1 pbc="T T T"
Si       2.29336973      -0.16216695       0.39756129       0.00000000
Si      -0.97436259      -2.14653330       0.27665880       0.00000000
Si      -1.21947822       0.94943007       1.80495306       0.00000000
Si       0.17118509       0.64524690      -2.32872592       0.00000000
Si      -1.10142459      -1.35936792      -2.83650256       0.00000000
Si      -0.76140342      -2.38171203       2.63582581       0.00000000
Si      -2.87543817      -1.92948534      -1.16451810       0.00000000
Si       3.04979588      -0.96236433      -1.76840997       0.00000000
Si      -0.37510657      -0.28096992       3.62969455       0.00000000
Si      -0.47723836       3.14936199       2.00294079       0.00000000
