10
Lattice="16.28999089631971 0.0 0.0 0.0 16.28999089631971 0.0 0.0 0.0 34.474598006748145" Properties=species:S:1:pos:R:3:initial_magmoms:R:1 pbc="T T T"
Si      -2.29336973       0.16216695      -0.39756129       0.00000000
Si       0.56348739      -1.22059341       1.99907963       0.00000000
Si       0.75642615      -0.80019738      -2.16597125       0.00000000
Si       0.81712269       2.30966136       0.32585408       0.00000000
Si       2.89251756      -1.38728898      -1.45858658       0.00000000
Si      -2.12218464       0.80741385      -2.72628721       0.00000000
Si       0.23560227       1.08870957      -3.44480718       0.00000000
Si      -0.31654728       0.19261296       3.64120908       0.00000000
Si       3.70014318      -0.28266408       0.48929824       0.00000000
Si       3.17485584       1.99673046       0.47654263       0.00000000
