10
Lattice="16.28999089631971 0.0 0.0 0.0 16.28999089631971 0.0 0.0 0.0 34.474598006748145" Properties=species:S:1:pos:R:3:initial_magmoms:R:1 pbc="T T T"
Si       1.35408133      -1.35560493      -1.35998918       0.00000000
Si      -1.35516463       1.35513252      -1.35960996       0.00000000
Si       1.35715525       1.35702216       1.35681751       0.00000000
Si      -1.35749410      -1.35785295       1.35678304       0.00000000
Si       0.00114077       2.68749162      -2.71816499       0.00000000
Si      -0.00048082       2.71393029       2.71363502       0.00000000
Si      -2.71441852      -0.00026064       2.71366950       0.00000000
Si      -2.71423933      -2.71393029      -0.00113766       0.00000000
Si       2.71509454      -0.00039096       2.71404872       0.00000000
Si       2.71486648      -2.71461447      -0.00075844       0.00000000
