10
Lattice="16.28999089631971 0.0 0.0 0.0 16.28999089631971 0.0 0.0 0.0 34.474598006748145" Properties=species:S:1:pos:R:3:initial_magmoms:R:1 pbc="T T T"
Si       1.35578086       1.35509994      -1.35771385       0.00000000
Si      -1.35874481       1.35418770       1.35981680       0.00000000
Si      -1.35963439      -1.36001952      -1.35736911       0.00000000
Si       1.35633472      -1.36228383       1.36129921       0.00000000
Si      -0.00215843       2.71251306      -2.71494506       0.00000000
Si       2.71259125      -0.00208512      -2.71518638       0.00000000
Si       2.71322656       2.71518462      -0.00151688       0.00000000
Si       2.71518136      -2.71621089      -0.00086187       0.00000000
Si      -2.71680777      -0.00236205      -2.71497953       0.00000000
Si      -2.71872999       2.71319724      -0.00113766       0.00000000
