10
Lattice="16.28999089631971 0.0 0.0 0.0 16.28999089631971 0.0 0.0 0.0 34.474598006748145" Properties=species:S:1:pos:R:3:initial_magmoms:R:1 pbc="T T T"
Si       1.73621264       0.92212803      -1.20668055       0.00000000
Si      -1.09025616      -1.85153769      -1.13952400       0.00000000
Si      -1.65459063       1.80905337       0.15803165       0.00000000
Si       1.75204651      -0.19246635       1.72769544       0.00000000
Si       0.31269958       0.86353290       3.26509100       0.00000000
Si       0.36422322       2.24412669      -2.56253278       0.00000000
Si      -2.37465750      -0.47348514      -2.55729263       0.00000000
Si      -2.03180187       0.38335257       3.07217104       0.00000000
Si       2.96490217       2.42680275       0.03954239       0.00000000
Si      -3.54326952       1.00971936      -1.14097193       0.00000000
