10
Lattice="16.28999089631971 0.0 0.0 0.0 16.28999089631971 0.0 0.0 0.0 34.474598006748145" Properties=species:S:1:pos:R:3:initial_magmoms:R:1 pbc="T T T"
Si      -1.73621264      -0.92212803       1.20668055       0.00000000
Si       1.22868954       1.50467472       1.24622294       0.00000000
Si      -1.37198941       1.32199866      -1.35585222       0.00000000
Si       1.34490240      -1.40675553      -1.32682459       0.00000000
Si       0.01583388      -1.11459438       2.93437600       0.00000000
Si       2.29043916      -0.04465089       2.66850775       0.00000000
Si      -3.39080327       0.88692534       1.36471220       0.00000000
Si      -2.58868870       2.77008192       0.04888501       0.00000000
Si      -0.02699253       2.66991471      -2.71022204       0.00000000
Si       2.73215880       2.66637978      -0.04636836       0.00000000
