10
Lattice="16.28999089631971 0.0 0.0 0.0 16.28999089631971 0.0 0.0 0.0 34.474598006748145" Properties=species:S:1:pos:R:3:initial_magmoms:R:1 pbc="T T T"
Si       0.99358411       1.70166969       1.20261255       0.00000000
Si       1.78127729      -0.53048385      -1.41121846       0.00000000
Si      -0.84330954      -1.87449030       1.13876556       0.00000000
Si      -1.54583208       1.20844107      -1.30200287       0.00000000
Si       1.00773524       0.59885298      -3.25971296       0.00000000
Si      -1.97667000      -2.77597890      -0.71265929       0.00000000
Si       1.33504532       0.62522649       3.22823764       0.00000000
Si      -1.33676622       0.11867265      -3.45263292       0.00000000
Si       3.70147733       0.25857117      -0.37132610       0.00000000
Si      -3.66599187       0.71112366      -0.41210957       0.00000000
