10
Lattice="16.28999089631971 0.0 0.0 0.0 16.28999089631971 0.0 0.0 0.0 34.474598006748145" Properties=species:S:1:pos:R:3:initial_magmoms:R:1 pbc="T T T"
Si      -0.99358411      -1.70166969      -1.20261255       0.00000000
Si       0.34146121      -1.07644320       2.02562509       0.00000000
Si      -1.33446118       1.86468372       0.41752209       0.00000000
Si       2.11143487       0.66156948      -0.76271643       0.00000000
Si       2.70789322      -1.44309852      -1.57393865       0.00000000
Si       0.78769318      -2.23215354      -2.61383101       0.00000000
Si      -0.12356780       2.77267203       2.19406807       0.00000000
Si       0.05189179       0.76488066       3.46421639       0.00000000
Si      -2.53941619      -0.49322862      -2.50461542       0.00000000
Si      -3.34896403       0.98878671       1.32348056       0.00000000
