10
Lattice="16.28999089631971 0.0 0.0 0.0 16.28999089631971 0.0 0.0 0.0 34.474598006748145" Properties=species:S:1:pos:R:3:initial_magmoms:R:1 pbc="T T T"
Si       0.57625875      -1.12239729       2.00880147       0.00000000
Si      -2.33444334      -0.29994777      -0.33037026       0.00000000
Si       1.25328744      -1.30181535      -1.60989568       0.00000000
Si       0.08381205       2.45579895      -0.05681417       0.00000000
Si       1.20979314       0.42748218      -3.19717601       0.00000000
Si      -0.94830606       1.38859218      -3.36127518       0.00000000
Si       0.11961747      -3.41886375       1.70545932       0.00000000
Si      -3.46311458       0.66067353       1.49178564       0.00000000
Si      -3.02939333       0.61737471      -2.37057811       0.00000000
Si       2.97144261      -0.98784189       2.34885910       0.00000000
