10
Lattice="16.28999089631971 0.0 0.0 0.0 16.28999089631971 0.0 0.0 0.0 34.474598006748145" Properties=species:S:1:pos:R:3:initial_magmoms:R:1 pbc="T T T"
Si      -1.21089339      -0.90798831      -1.77654598       0.00000000
Si       2.31964550       0.48192336      -0.22667061       0.00000000
Si       0.17545959      -2.00779137       1.27014832       0.00000000
Si      -1.52142966       1.62026923       0.91474949       0.00000000
Si       2.18605121       1.09599120       2.01845437       0.00000000
Si      -2.20916088      -2.34530388       1.22898563       0.00000000
Si       0.12356780      -2.77267203      -2.19406807       0.00000000
Si      -0.29815913       3.57056342       0.27100497       0.00000000
Si      -1.09396391       0.67930929      -3.49851864       0.00000000
Si      -1.63290213       0.95749362       3.21713681       0.00000000
