10
Lattice="10.86 0.0 0.0 0.0 10.86 0.0 0.0 0.0 10.86" Properties=species:S:1:pos:R:3:initial_magmoms:R:1 pbc="T T T"
Si      -1.26268134      -1.33506324      -1.33989594       0.00000000
Si      -1.26268134       1.37993676       1.37510406       0.00000000
Si       1.45231866       1.37993676      -1.33989594       0.00000000
Si      -2.62018134      -2.69256324       0.01760406       0.00000000
Si      -2.62018134       0.02243676      -2.69739594       0.00000000
Si      -2.62018134       0.02243676       2.73260406       0.00000000
Si      -2.62018134       2.73743676       0.01760406       0.00000000
Si       0.09481866      -2.69256324      -2.69739594       0.00000000
Si       0.09481866       2.73743676      -2.69739594       0.00000000
Si       0.04809894      -2.68594950       2.76114414       0.00000000
