10
Lattice="16.28999089631971 0.0 0.0 0.0 16.28999089631971 0.0 0.0 0.0 34.48637585096406" Properties=species:S:1:pos:R:3:initial_magmoms:R:1 pbc="T T T"
Si       1.11552291       1.56679663      -1.35628582       0.00000000
Si       1.33273377      -1.36881516       1.42094294       0.00000000
Si      -1.40598990       1.33621168       1.40005108       0.00000000
Si      -0.77351436      -1.71655779      -1.48198873       0.00000000
Si      -0.76207878       3.42745672      -1.37811570       0.00000000
Si       2.30573547      -0.31685842      -3.00577009       0.00000000
Si       2.70580158      -2.67613653       0.01017349       0.00000000
Si       2.72176578       2.70921433      -0.03712116       0.00000000
Si       2.68325622      -0.01999272       2.78354524       0.00000000
Si       1.01164158      -3.48052044      -1.35959651       0.00000000
