10
Lattice="16.28999089631971 0.0 0.0 0.0 16.28999089631971 0.0 0.0 0.0 34.48637585096406" Properties=species:S:1:pos:R:3:initial_magmoms:R:1 pbc="T T T"
Si       1.35765747       1.35682668       1.35700516       0.00000000
Si      -1.35607734      -1.35734959       1.35876397       0.00000000
Si      -1.35738054       1.35726651      -1.35759143       0.00000000
Si       1.35747828      -1.35783014      -1.35741900       0.00000000
Si       0.00016290      -2.71497722      -2.71418276       0.00000000
Si       2.71494027       2.71446786      -0.00010346       0.00000000
Si      -2.71495656       2.71451673       0.00000000       0.00000000
Si      -2.71456560      -2.71537589       0.00055178       0.00000000
Si       2.71502172      -2.71528485      -0.00017243       0.00000000
Si      -2.71567332      -0.00133578      -2.71480351       0.00000000
