10
Lattice="16.28999089631971 0.0 0.0 0.0 16.28999089631971 0.0 0.0 0.0 34.48637585096406" Properties=species:S:1:pos:R:3:initial_magmoms:R:1 pbc="T T T"
Si       1.35418770      -1.35911498       1.35810873       0.00000000
Si       1.35607734       1.35734959      -1.35876397       0.00000000
Si      -1.35848826      -1.35802630      -1.35821219       0.00000000
Si      -1.35974259       1.36021663       1.36148839       0.00000000
Si      -0.01397682      -2.68420660       2.72176976       0.00000000
Si       2.71373481       2.71417627      -0.00175881       0.00000000
Si       2.71355562      -0.00048056      -2.71618297       0.00000000
Si      -2.71641289       2.71386676      -0.00189675       0.00000000
Si      -0.00130320       2.71461610      -2.71635540       0.00000000
Si       2.71443528      -2.71654225      -0.00206918       0.00000000
