10
Lattice="16.28999089631971 0.0 0.0 0.0 16.28999089631971 0.0 0.0 0.0 34.48637585096406" Properties=species:S:1:pos:R:3:initial_magmoms:R:1 pbc="T T T"
Si       0.96321141      -0.36957123       2.06473496       0.00000000
Si       0.72707157       1.93026726      -1.09718466       0.00000000
Si       1.26392481      -1.35361103      -1.54588715       0.00000000
Si      -2.29576599      -0.36276201       0.80067064       0.00000000
Si      -1.70365707      -2.54198024       1.73970069       0.00000000
Si      -0.60483141       1.16872605      -3.27893196       0.00000000
Si       0.59331438      -2.62885481       2.43653279       0.00000000
Si      -0.40728258       0.92416428       3.49181648       0.00000000
Si      -0.22038741      -3.07700900      -2.25844504       0.00000000
Si       1.41491682      -0.11518659      -3.59824149       0.00000000
