10
Lattice="16.28999089631971 0.0 0.0 0.0 16.28999089631971 0.0 0.0 0.0 34.48637585096406" Properties=species:S:1:pos:R:3:initial_magmoms:R:1 pbc="T T T"
Si       2.28416751      -0.11846088       0.74835477       0.00000000
Si      -1.31077485      -1.10066643       1.71393935       0.00000000
Si       0.39568410      -1.40538717      -1.94279107       0.00000000
Si      -0.49459698       2.11844934       1.09228759       0.00000000
Si      -2.74556547       1.24194960      -1.22433600       0.00000000
Si      -1.77412761       1.00193274       2.74370311       0.00000000
Si       2.20322250      -0.80585001       3.00424782       0.00000000
Si       0.98779302      -3.58460540      -1.00376102       0.00000000
Si       1.49431428       3.11324706       1.93234169       0.00000000
Si       3.65466150      -1.41219639      -0.67872674       0.00000000
