10
Lattice="16.28999089631971 0.0 0.0 0.0 16.28999089631971 0.0 0.0 0.0 34.48637585096406" Properties=species:S:1:pos:R:3:initial_magmoms:R:1 pbc="T T T"
Si       2.02217544       1.19927795      -0.44515039       0.00000000
Si      -0.77426370       1.01402806       2.02538599       0.00000000
Si       0.25135470      -2.09398080       1.15605294       0.00000000
Si      -1.49182191       0.90446153      -1.73545886       0.00000000
Si      -2.60149671      -0.52772269       2.28765502       0.00000000
Si      -1.95517467       3.00706070      -0.70569510       0.00000000
Si      -0.94146426       3.26307434       1.39614722       0.00000000
Si      -2.91200040      -2.23842423       0.51815809       0.00000000
Si       2.55406023      -2.39539467       1.52126386       0.00000000
Si       2.10312045       1.88666708      -2.70104344       0.00000000
