10
Lattice="16.28999089631971 0.0 0.0 0.0 16.28999089631971 0.0 0.0 0.0 34.48637585096406" Properties=species:S:1:pos:R:3:initial_magmoms:R:1 pbc="T T T"
Si       1.35674523      -1.35407367       1.36010894       0.00000000
Si      -1.35765747      -1.35682668      -1.35700516       0.00000000
Si       1.35728280       1.35764118      -1.35710862       0.00000000
Si      -1.35770634       1.35677781       1.36217812       0.00000000
Si       2.69658144       0.00281817       2.73111558       0.00000000
Si      -2.71373481      -2.71417627       0.00175881       0.00000000
Si       2.71376739       2.71454931       0.00048281       0.00000000
Si      -0.00017919      -2.71465682      -2.71442416       0.00000000
Si       2.71510317       0.00042354      -2.71445865       0.00000000
Si      -2.71503801       0.00043983      -2.71459659       0.00000000
