10
Lattice="16.28999089631971 0.0 0.0 0.0 16.28999089631971 0.0 0.0 0.0 34.48637585096406" Properties=species:S:1:pos:R:3:initial_magmoms:R:1 pbc="T T T"
Si       1.35770634      -1.35677781      -1.36217812       0.00000000
Si      -1.35804843       1.35964485      -1.36183326       0.00000000
Si       1.36518345       1.35220032       1.37711073       0.00000000
Si      -1.35824391      -1.35420399       1.38645654       0.00000000
Si      -0.12092067       2.66831829       2.68211041       0.00000000
Si       2.71445157      -2.71085148      -0.00206918       0.00000000
Si      -2.71577106      -2.71073745       0.00106908       0.00000000
Si       2.71639008       2.71635750      -0.00082767       0.00000000
Si       0.00004887      -2.71360449      -2.71918328       0.00000000
Si      -2.71490769       0.00091224      -2.71918328       0.00000000
