10
Lattice="16.28999089631971 0.0 0.0 0.0 16.28999089631971 0.0 0.0 0.0 34.48637585096406" Properties=species:S:1:pos:R:3:initial_magmoms:R:1 pbc="T T T"
Si       1.35120663       1.36415718      -1.37793840       0.00000000
Si      -1.36518345      -1.35220032      -1.37711073       0.00000000
Si      -1.48610412       1.31611797       1.30499968       0.00000000
Si       1.33102332      -1.38277665       1.52091900       0.00000000
Si       2.68910433      -2.70615996      -0.00817328       0.00000000
Si       2.69764029       2.71870326       0.00534539       0.00000000
Si      -2.72342736      -2.70640431       0.00934581       0.00000000
Si       2.70629028       0.00557118      -2.73880604       0.00000000
Si      -0.00747711      -2.70897813      -2.73928885       0.00000000
Si      -0.00737937       2.72129337      -2.73866810       0.00000000
