10
Lattice="16.28999089631971 0.0 0.0 0.0 16.28999089631971 0.0 0.0 0.0 34.48637585096406" Properties=species:S:1:pos:R:3:initial_magmoms:R:1 pbc="T T T"
Si       1.11822705       0.86587866       1.94603279       0.00000000
Si       0.45255249       0.29817216      -2.37456074       0.00000000
Si      -1.80217899      -1.55712852       0.53864301       0.00000000
Si      -1.60656867       2.01844503      -0.19722769       0.00000000
Si       1.75749552      -1.99593225       0.36265893       0.00000000
Si      -1.04969502       0.72549144       3.27003447       0.00000000
Si      -2.92071555      -0.17756100       2.10873960       0.00000000
Si      -1.53635877      -0.69662556      -3.21461484       0.00000000
Si      -2.81588940      -1.81314216      -1.56319932       0.00000000
Si       3.33690876       1.41371136       0.87698903       0.00000000
