10
Lattice="16.28999089631971 0.0 0.0 0.0 16.28999089631971 0.0 0.0 0.0 34.48637585096406" Properties=species:S:1:pos:R:3:initial_magmoms:R:1 pbc="T T T"
Si      -0.04251690       0.10684611      -2.33145274       0.00000000
Si      -1.97623764      -0.66552795       1.26634530       0.00000000
Si       0.79625520       1.95569595       1.34884710       0.00000000
Si       1.87760169      -1.86066009       0.02182989       0.00000000
Si      -0.64391112      -2.09124504       2.77816678       0.00000000
Si       2.10527073       0.63156330       2.78969214       0.00000000
Si       0.76207878      -3.42745672       1.37811570       0.00000000
Si       3.48384456      -0.71824239       1.34099455       0.00000000
Si      -0.99010620       2.10401640      -3.32090190       0.00000000
Si      -0.35126127      -2.35035378      -3.36332017       0.00000000
