10
Lattice="16.28999089631971 0.0 0.0 0.0 16.28999089631971 0.0 0.0 0.0 34.48637585096406" Properties=species:S:1:pos:R:3:initial_magmoms:R:1 pbc="T T T"
Si      -1.23326703       1.36780614      -1.43942765       0.00000000
Si       1.31567814       1.36554183       1.38573233       0.00000000
Si      -1.97407107      -0.83996127       1.09535688       0.00000000
Si       1.45914417      -1.36070370      -1.39649208       0.00000000
Si      -2.40026634       2.93092938      -0.16670723       0.00000000
Si       2.71186146       2.65688271      -0.06528275       0.00000000
Si      -2.60560179       0.00032580      -2.77943101       0.00000000
Si      -2.72460024      -2.76328899      -0.09683780       0.00000000
Si       0.11271051      -2.71524978      -2.77977588       0.00000000
Si      -1.38911346      -1.63536939       3.24468697       0.00000000
