10
Lattice="16.28999089631971 0.0 0.0 0.0 16.28999089631971 0.0 0.0 0.0 34.48637585096406" Properties=species:S:1:pos:R:3:initial_magmoms:R:1 pbc="T T T"
Si       1.47351195      -0.20004120      -1.77208341       0.00000000
Si       1.11501792       0.39236094       2.04190497       0.00000000
Si      -2.41745229      -0.03655476      -0.09632050       0.00000000
Si      -1.28414070       2.02064418      -0.35183020       0.00000000
Si      -0.14076189      -2.81681793       0.34082904       0.00000000
Si       2.07791982      -2.26898523      -0.72821472       0.00000000
Si      -1.01235834       1.00497897       2.94500020       0.00000000
Si      -2.44350000      -0.67559517       2.15450305       0.00000000
Si       2.96337906       1.55097090       1.14398270       0.00000000
Si       3.29637924       1.22191290      -1.18384897       0.00000000
