10
Lattice="16.28999089631971 0.0 0.0 0.0 16.28999089631971 0.0 0.0 0.0 34.48637585096406" Properties=species:S:1:pos:R:3:initial_magmoms:R:1 pbc="T T T"
Si      -0.33304905       0.95384466       2.09242754       0.00000000
Si      -1.13331159      -2.05719894       0.25550970       0.00000000
Si      -0.96418881       1.41856578      -1.63641394       0.00000000
Si       1.28414070      -2.02064418       0.35183020       0.00000000
Si       0.27178236      -1.01566521       3.29683040       0.00000000
Si       1.23818661       2.91156057       1.72049177       0.00000000
Si      -3.25837467       1.20664917      -1.22012866       0.00000000
Si       2.39915862      -1.62828324       2.39373517       0.00000000
Si       2.75765265      -2.22068538      -1.42025321       0.00000000
Si       1.71849726       3.37105260      -0.58961390       0.00000000
