10
Lattice="16.28999089631971 0.0 0.0 0.0 16.28999089631971 0.0 0.0 0.0 34.48637585096406" Properties=species:S:1:pos:R:3:initial_magmoms:R:1 pbc="T T T"
Si      -0.82945422      -1.85824917      -1.16408551       0.00000000
Si       1.22161968      -1.48328595       1.40804503       0.00000000
Si      -1.51953120       1.21370274       1.38000759       0.00000000
Si       0.89412552       1.82128716      -1.37910891       0.00000000
Si       2.58828552       2.62567107      -0.00933892       0.00000000
Si      -0.14999832       2.57088780       2.76113598       0.00000000
Si       2.56749948      -0.15296310       2.76537781       0.00000000
Si      -0.57337542      -1.49452605      -3.43836054       0.00000000
Si      -2.85348672       2.54909178      -0.23357980       0.00000000
Si      -2.72807001      -2.73887028       0.02519576       0.00000000
