10
Lattice="16.28999089631971 0.0 0.0 0.0 16.28999089631971 0.0 0.0 0.0 34.48637585096406" Properties=species:S:1:pos:R:3:initial_magmoms:R:1 pbc="T T T"
Si       1.35822762       1.35588186       1.35683273       0.00000000
Si       1.35729909      -1.35811359      -1.35676376       0.00000000
Si      -1.35772263       1.35734796      -1.35762592       0.00000000
Si      -1.35783666      -1.35817875       1.35745348       0.00000000
Si      -2.71261080      -0.00169416      -2.71456211       0.00000000
Si      -0.00061902      -2.71450044      -2.71363097       0.00000000
Si       2.71513575      -0.00105885       2.71359649       0.00000000
Si       0.00003258       2.71479648      -2.71404481       0.00000000
Si      -2.71469592       2.71439780       0.00068973       0.00000000
Si       2.71489140       2.71448885      -0.00003449       0.00000000
