10
Lattice="16.28999089631971 0.0 0.0 0.0 16.28999089631971 0.0 0.0 0.0 34.48637585096406" Properties=species:S:1:pos:R:3:initial_magmoms:R:1 pbc="T T T"
Si      -1.16699931       1.56312324       1.27272041       0.00000000
Si       1.34490240       1.34614044      -1.34524530       0.00000000
Si       1.23326703      -1.36780614       1.43942765       0.00000000
Si      -1.37233476      -1.36748034      -1.34000337       0.00000000
Si      -2.29633614      -0.09884772       2.50278115       0.00000000
Si      -0.74080404      -2.20776741       2.53478453       0.00000000
Si       2.54894517      -0.00226431       2.82515997       0.00000000
Si       2.70221778      -0.00912240      -2.70125036       0.00000000
Si      -0.01200573       2.70308115      -2.70200906       0.00000000
Si       2.69087994       2.71950147       0.02531301       0.00000000
