10
Lattice="16.28999089631971 0.0 0.0 0.0 16.28999089631971 0.0 0.0 0.0 34.48637585096406" Properties=species:S:1:pos:R:3:initial_magmoms:R:1 pbc="T T T"
Si      -0.21396915      -2.16521793      -0.85809048       0.00000000
Si       1.93083741       1.21020039       0.57892311       0.00000000
Si      -1.28075238       0.12266370       1.99969362       0.00000000
Si      -0.76839930       1.29946959      -1.89644135       0.00000000
Si      -3.01358484       1.47385404       1.15674267       0.00000000
Si       1.95838380      -2.25947187      -1.95258521       0.00000000
Si      -2.23401060       2.78681063      -0.74321630       0.00000000
Si       2.71248048       1.99925541      -1.48288050       0.00000000
Si      -0.73925649      -3.47604165       1.07173370       0.00000000
Si       1.22921082       2.53428417       2.51526523       0.00000000
