10
Lattice="16.28999089631971 0.0 0.0 0.0 16.28999089631971 0.0 0.0 0.0 34.48637585096406" Properties=species:S:1:pos:R:3:initial_magmoms:R:1 pbc="T T T"
Si       2.30568660      -0.46037169      -0.09852763       0.00000000
Si      -0.21589137       0.45610371       2.30341530       0.00000000
Si      -0.75869046       1.87146036      -1.28717021       0.00000000
Si      -1.69468128      -1.68643854      -0.30127315       0.00000000
Si      -2.73983139       2.40720588      -0.05045360       0.00000000
Si      -1.79048277       0.81288729      -3.13977936       0.00000000
Si      -2.51007723       0.24418710       2.71970058       0.00000000
Si       3.30753789       1.11834108       1.45839516       0.00000000
Si      -3.54734298      -0.98344359       0.97662022       0.00000000
Si      -2.48657076      -1.39997889      -2.52281775       0.00000000
