10
Lattice="16.28999089631971 0.0 0.0 0.0 16.28999089631971 0.0 0.0 0.0 34.48637585096406" Properties=species:S:1:pos:R:3:initial_magmoms:R:1 pbc="T T T"
Si       1.69416000       0.80438391       1.36977000       0.00000000
Si       1.23090498       0.51228792      -1.96279318       0.00000000
Si      -0.89412552      -1.82128716       1.37910891       0.00000000
Si      -1.78515594       1.76396265      -0.12239222       0.00000000
Si       0.32109219       2.11170528       2.78053945       0.00000000
Si       2.89533573       2.30158056       0.00275891       0.00000000
Si      -2.41365672      -0.60758442       2.75911650       0.00000000
Si      -0.50109669       0.61141257      -3.63559026       0.00000000
Si       1.29409389       3.16366202      -1.64617358       0.00000000
Si      -1.01164158       3.48052044       1.35959651       0.00000000
