10
Lattice="16.28999089631971 0.0 0.0 0.0 16.28999089631971 0.0 0.0 0.0 34.48637585096406" Properties=species:S:1:pos:R:3:initial_magmoms:R:1 pbc="T T T"
Si      -1.48431222      -1.72339796      -0.71255790       0.00000000
Si       2.20434651      -0.50279411       0.78763478       0.00000000
Si       0.15099201       1.23842444      -2.05235435       0.00000000
Si      -1.26392481       1.35361103       1.54588715       0.00000000
Si      -0.53685324       3.28387829       0.44870249       0.00000000
Si       1.80507861      -2.79339032       1.11701434       0.00000000
Si      -1.86875622       2.52233708      -1.73304481       0.00000000
Si      -2.26595529      -2.51245298       1.34924572       0.00000000
Si      -0.30071340       0.98403980       3.61062211       0.00000000
Si      -0.19196136      -2.97124454       2.40132218       0.00000000
