10
Lattice="16.28999089631971 0.0 0.0 0.0 16.28999089631971 0.0 0.0 0.0 34.48637585096406" Properties=species:S:1:pos:R:3:initial_magmoms:R:1 pbc="T T T"
Si       0.58044528       1.02925107      -2.04669858       0.00000000
Si       1.91495466      -1.34438112       0.37938483       0.00000000
Si      -1.94530293      -1.36979352      -0.08300875       0.00000000
Si       0.81169812       1.10521134       2.16088303       0.00000000
Si       3.03285591       1.25476983      -1.62506791       0.00000000
Si      -1.68775803       2.17145700      -2.53564669       0.00000000
Si      -3.84356034       0.04895145      -0.30361822       0.00000000
Si       3.50402787      -1.04058891      -1.30017158       0.00000000
Si      -2.60569953      -2.10247862       2.12839685       0.00000000
Si      -2.05227936      -2.72084214      -2.04345686       0.00000000
