10
Lattice="16.28999089631971 0.0 0.0 0.0 16.28999089631971 0.0 0.0 0.0 34.48637585096406" Properties=species:S:1:pos:R:3:initial_magmoms:R:1 pbc="T T T"
Si      -1.35648459      -1.35690813      -1.35759143       0.00000000
Si       1.35876519       1.35804843      -1.35752246       0.00000000
Si      -1.35508365       1.35858600       1.36086764       0.00000000
Si       1.35819504      -1.35770634       1.36076418       0.00000000
Si      -2.71376739      -2.71454931      -0.00048281       0.00000000
Si      -2.71389771       0.00074934      -2.71483800       0.00000000
Si       0.00133578      -2.71412577      -2.71494146       0.00000000
Si      -2.71366965       2.71572219       0.00013795       0.00000000
Si       2.71639008       2.71406061      -0.00062076       0.00000000
Si       2.71573848       0.00058644      -2.71490697       0.00000000
