10
Lattice="16.28999089631971 0.0 0.0 0.0 16.28999089631971 0.0 0.0 0.0 34.48637585096406" Properties=species:S:1:pos:R:3:initial_magmoms:R:1 pbc="T T T"
Si      -1.63457118      -1.09688715      -1.32451898       0.00000000
Si       1.07500968       1.61569107      -1.36955821       0.00000000
Si      -1.54945593       0.91784376       1.72728559       0.00000000
Si       1.73490129      -1.84994127       0.09752753       0.00000000
Si      -0.27649017      -2.42027046      -2.85361125       0.00000000
Si       2.45278530       0.30708279      -2.85243871       0.00000000
Si       2.43385632       2.92866507       0.10239011       0.00000000
Si      -3.11798745      -2.25140832       0.14536016       0.00000000
Si       1.42436502      -2.87564112       2.27541235       0.00000000
Si      -3.72845520      -0.35525232       1.44491098       0.00000000
