10
Lattice="16.28999089631971 0.0 0.0 0.0 16.28999089631971 0.0 0.0 0.0 34.48637585096406" Properties=species:S:1:pos:R:3:initial_magmoms:R:1 pbc="T T T"
Si      -1.35734796       1.35682668      -1.35700516       0.00000000
Si      -1.35702216      -1.35817875       1.35752246       0.00000000
Si       1.35806472      -1.35796698      -1.35741900       0.00000000
Si       1.35780408       1.35861858       1.35735003       0.00000000
Si       0.00048870       2.71388142       2.71335508       0.00000000
Si      -2.71526607       0.00043983      -2.71387238       0.00000000
Si       0.00198738      -2.71404432      -2.71538978       0.00000000
Si      -2.71464705       2.71494027      -0.00024140       0.00000000
Si       2.71524978       2.71437012      -0.00006897       0.00000000
Si       2.71505430       0.00131949      -2.71525183       0.00000000
