10
Lattice="16.28999089631971 0.0 0.0 0.0 16.28999089631971 0.0 0.0 0.0 34.48637585096406" Properties=species:S:1:pos:R:3:initial_magmoms:R:1 pbc="T T T"
Si       0.68861088      -0.42319791       2.21009512       0.00000000
Si       2.12916816      -0.22307526      -1.00058827       0.00000000
Si      -0.51165261       2.29957785      -0.40800854       0.00000000
Si      -1.64657691      -1.44023148      -1.02124562       0.00000000
Si       0.53812386       2.23927227      -2.56716725       0.00000000
Si       1.63378926      -1.39222485      -2.93234369       0.00000000
Si      -0.00444717       0.16949745      -3.74608467       0.00000000
Si       2.75950971       1.85662017      -1.87419763       0.00000000
Si      -3.72992130      -1.07572644      -0.09263046       0.00000000
Si       2.51147817       0.99875619       2.79832956       0.00000000
