10
Lattice="16.28999089631971 0.0 0.0 0.0 16.28999089631971 0.0 0.0 0.0 34.48637585096406" Properties=species:S:1:pos:R:3:initial_magmoms:R:1 pbc="T T T"
Si       0.08039115       2.14980759      -0.97106791       0.00000000
Si      -0.33300018       0.32905800       2.32783167       0.00000000
Si      -1.82286729      -1.42195410      -0.58823444       0.00000000
Si       1.96138116      -1.20295134      -0.68079593       0.00000000
Si       1.30670235      -1.17165825       2.97541720       0.00000000
Si      -3.29637924      -1.22191290       1.18384897       0.00000000
Si       0.76134573      -3.18005235       1.78194652       0.00000000
Si      -1.21845942      -3.49089813       0.45563425       0.00000000
Si       1.47036798      -2.13783444      -2.80198512       0.00000000
Si       3.74165010       0.31941432      -0.78256528       0.00000000
