10
Lattice="16.28999089631971 0.0 0.0 0.0 16.28999089631971 0.0 0.0 0.0 34.48637585096406" Properties=species:S:1:pos:R:3:initial_magmoms:R:1 pbc="T T T"
Si      -1.63970253       1.50071625      -0.64758553       0.00000000
Si      -0.54535662      -2.00839410      -1.19347068       0.00000000
Si      -0.38169099      -0.25974405       2.36876702       0.00000000
Si       1.96475319       1.52318016       0.44728854       0.00000000
Si       0.41124105       2.08640691       2.30048396       0.00000000
Si      -2.67196725      -1.34493498       1.71666378       0.00000000
Si      -1.30670235       1.17165825      -2.97541720       0.00000000
Si      -3.48806367       0.34210629       0.25033674       0.00000000
Si       1.42167717      -1.97967483      -2.55440729       0.00000000
Si      -0.96800067       3.50679717       0.57209481       0.00000000
