10
Lattice="16.28999089631971 0.0 0.0 0.0 16.28999089631971 0.0 0.0 0.0 34.48637585096406" Properties=species:S:1:pos:R:3:initial_magmoms:R:1 pbc="T T T"
Si      -1.34587980      -1.33032285      -1.35733278       0.00000000
Si       1.35700587      -1.34912151       1.35669478       0.00000000
Si      -1.35539316       1.36563957       1.35586711       0.00000000
Si       1.37580453       1.36847403      -1.39336417       0.00000000
Si       0.11134215      -2.63347398      -2.62621486       0.00000000
Si      -2.56749948       0.15296310      -2.76537781       0.00000000
Si       2.71041165      -2.70726768      -0.00296583       0.00000000
Si       0.00001629      -2.70840798       2.71452762       0.00000000
Si      -2.71614573      -2.70886410      -0.00565577       0.00000000
Si       2.71485882       0.00583182       2.71473454       0.00000000
