10
Lattice="16.28999089631971 0.0 0.0 0.0 16.28999089631971 0.0 0.0 0.0 34.48637585096406" Properties=species:S:1:pos:R:3:initial_magmoms:R:1 pbc="T T T"
Si      -0.12175146       1.93040477       1.29237766       0.00000000
Si      -1.42587999      -1.25004573      -1.35445317       0.00000000
Si       1.39497786       1.39380498      -1.31848386       0.00000000
Si      -0.03070665      -1.58550570       1.78218793       0.00000000
Si      -2.31594930       2.76429964       0.16574161       0.00000000
Si       2.62883133       2.58459488       0.29816937       0.00000000
Si       0.04808808      -2.55857256      -2.69535318       0.00000000
Si      -2.82206331      -2.54138661       0.09656191       0.00000000
Si      -2.68012854       0.18037917      -2.70328505       0.00000000
Si       2.77542504       0.14343345      -2.70635434       0.00000000
