10
Lattice="16.28999089631971 0.0 0.0 0.0 16.28999089631971 0.0 0.0 0.0 34.48637585096406" Properties=species:S:1:pos:R:3:initial_magmoms:R:1 pbc="T T T"
Si       1.59391134      -1.13275773       1.23295760       0.00000000
Si      -1.31567814      -1.36554183      -1.38573233       0.00000000
Si       1.39618332       1.29134088      -1.45101507       0.00000000
Si      -1.25255439       1.09613781       1.96386226       0.00000000
Si       2.79135666       0.95588091       1.68562602       0.00000000
Si       1.00848132       1.02990267       3.31000420       0.00000000
Si      -2.41826679       2.70951570       0.14794664       0.00000000
Si       2.82206331       2.54138661      -0.09656191       0.00000000
Si      -2.54894517       0.00226431      -2.82515997       0.00000000
Si       0.14346603      -2.72624553      -2.78222441       0.00000000
