10
Lattice="16.28999089631971 0.0 0.0 0.0 16.28999089631971 0.0 0.0 0.0 34.48637585096406" Properties=species:S:1:pos:R:3:initial_magmoms:R:1 pbc="T T T"
Si      -1.08108585       0.18163350      -2.06094146       0.00000000
Si      -0.07641639       2.00785557       1.25375289       0.00000000
Si      -0.78999984      -1.83765861       1.32482936       0.00000000
Si       2.38148397      -0.24462693      -0.37255653       0.00000000
Si       0.23755707       0.92698475       3.34431817       0.00000000
Si       1.31167080      -2.56738545       2.00317675       0.00000000
Si      -0.71118882       2.44091708      -2.43273928       0.00000000
Si       2.44991826      -2.55345750      -0.00565577       0.00000000
Si      -1.63074303      -0.54740916       3.21664953       0.00000000
Si       2.08197603      -0.52937613       3.02825036       0.00000000
