10
Lattice="16.28999089631971 0.0 0.0 0.0 16.28999089631971 0.0 0.0 0.0 34.48637585096406" Properties=species:S:1:pos:R:3:initial_magmoms:R:1 pbc="T T T"
Si       1.43413317      -1.12170564      -1.46170210       0.00000000
Si       1.61864512       1.17965501       1.23462157       0.00000000
Si      -0.76453857       1.67027723      -1.63147863       0.00000000
Si      -1.37824803      -1.82040003       1.27505687       0.00000000
Si      -2.43374229      -0.17365713       2.55307784       0.00000000
Si       0.15988635      -1.07094600      -3.39256088       0.00000000
Si       0.28357632       2.53944647       2.56070968       0.00000000
Si      -2.43374229       2.66939180      -0.25229871       0.00000000
Si       2.34527849       3.00902201      -0.16133536       0.00000000
Si      -2.15005194      -0.62477919      -3.13053325       0.00000000
