10
Lattice="16.28999089631971 0.0 0.0 0.0 16.28999089631971 0.0 0.0 0.0 34.48637585096406" Properties=species:S:1:pos:R:3:initial_magmoms:R:1 pbc="T T T"
Si       1.35509994       1.35791525       1.35724657       0.00000000
Si       1.35775521      -1.35711692      -1.35759143       0.00000000
Si      -1.35860229       1.35746076      -1.35676376       0.00000000
Si      -1.35754344      -1.35723095       1.35821219       0.00000000
Si      -2.71505430      -0.00045367      -2.71232049       0.00000000
Si       2.71426390       0.00149606      -2.71466556       0.00000000
Si      -0.00047241       2.71521108      -2.71401032       0.00000000
Si      -2.71500543      -2.71483955      -0.00013795       0.00000000
Si       2.71512015       2.71491786      -0.00020692       0.00000000
Si       0.00105885       2.71741023       2.71276881       0.00000000
