10
Lattice="16.28999089631971 0.0 0.0 0.0 16.28999089631971 0.0 0.0 0.0 34.48637585096406" Properties=species:S:1:pos:R:3:initial_magmoms:R:1 pbc="T T T"
Si       1.33661079       1.33864704       1.37380004       0.00000000
Si      -1.35845568       1.35268902      -1.35510841       0.00000000
Si       1.35404109      -1.35949498      -1.35552225       0.00000000
Si      -1.35555606      -1.35694560       1.38893956       0.00000000
Si       2.51185284      -0.14634936       2.82716019       0.00000000
Si      -0.00118917       2.71248048      -2.71290676       0.00000000
Si       2.71406130      -0.00249237      -2.71297573       0.00000000
Si      -2.71647153       2.71176372       0.00531090       0.00000000
Si       2.71524978       2.71305063       0.00703522       0.00000000
Si      -2.71634121      -0.00188964      -2.71307919       0.00000000
