10
Lattice="16.28999089631971 0.0 0.0 0.0 16.28999089631971 0.0 0.0 0.0 34.48637585096406" Properties=species:S:1:pos:R:3:initial_magmoms:R:1 pbc="T T T"
Si      -1.23385347      -1.19078990      -1.61665323       0.00000000
Si       1.28774079       1.50881238      -1.54536985       0.00000000
Si       1.46220669      -1.72992374       1.11660050       0.00000000
Si      -2.75058279      -0.65419011       0.99420829       0.00000000
Si      -1.39382127       1.78685010       2.52164521       0.00000000
Si       2.35968699      -0.15079001       2.58747974       0.00000000
Si      -2.62883133      -2.58459488      -0.29816937       0.00000000
Si      -1.74275307      -0.47107422       3.24523875       0.00000000
Si       0.14659371      -2.44116143      -3.00452372       0.00000000
Si      -2.57966811       0.29821614      -2.98359047       0.00000000
