10
Lattice="16.28999089631971 0.0 0.0 0.0 16.28999089631971 0.0 0.0 0.0 34.48637585096406" Properties=species:S:1:pos:R:3:initial_magmoms:R:1 pbc="T T T"
Si       0.26538039       1.38895056       1.88740592       0.00000000
Si      -2.22128811       0.77067990      -0.38997216       0.00000000
Si      -0.34893180      -2.25792432       0.72359354       0.00000000
Si      -1.35676152      -2.44104021      -1.52743693       0.00000000
Si       1.39382127      -1.78685010      -2.52164521       0.00000000
Si       1.90211814      -2.59186280       1.52757487       0.00000000
Si      -2.27458899       2.02255011       1.87268023       0.00000000
Si      -1.91075184       1.79637975      -2.56785698       0.00000000
Si       2.00977875       2.95039593       1.39680246       0.00000000
Si       0.83557926       0.07651413       3.75436141       0.00000000
