10
Lattice="16.28999089631971 0.0 0.0 0.0 16.28999089631971 0.0 0.0 0.0 34.48637585096406" Properties=species:S:1:pos:R:3:initial_magmoms:R:1 pbc="T T T"
Si      -1.82417049      -0.12329575       1.52126386       0.00000000
Si       0.34893180       2.25792432      -0.72359354       0.00000000
Si       2.25104994      -0.33393848       0.80398133       0.00000000
Si      -1.00782972      -0.18311589      -2.25103047       0.00000000
Si       1.85212413      -2.63190104       1.32441552       0.00000000
Si      -0.69722829       0.90895919       3.36100958       0.00000000
Si       1.74275307       0.47107422      -3.24523875       0.00000000
Si      -1.87235631       3.02860422      -1.11356570       0.00000000
Si      -2.22343839      -2.41389197       1.85064342       0.00000000
Si       0.61431219       3.64687488       1.16381238       0.00000000
