10
Lattice="16.28999089631971 0.0 0.0 0.0 16.28999089631971 0.0 0.0 0.0 34.48637585096406" Properties=species:S:1:pos:R:3:initial_magmoms:R:1 pbc="T T T"
Si       1.20617676       1.36542780      -1.46111066       0.00000000
Si      -1.27358478      -1.35860229      -1.51111593       0.00000000
Si       1.33643160      -1.31491251       1.50138245       0.00000000
Si      -1.36819710       1.37428956       1.52173977       0.00000000
Si      -0.65754585       2.91823947      -2.10138507       0.00000000
Si       2.29097673      -0.83077371      -2.78642283       0.00000000
Si       2.61718398       2.65046445       0.06369292       0.00000000
Si      -2.71366965      -2.65173507       0.06500685       0.00000000
Si       0.28769769      -2.47011786      -2.87115590       0.00000000
Si      -2.63907774       2.84079681       0.26080336       0.00000000
