10
Lattice="16.28999089631971 0.0 0.0 0.0 16.28999089631971 0.0 0.0 0.0 34.48637585096406" Properties=species:S:1:pos:R:3:initial_magmoms:R:1 pbc="T T T"
Si       1.35508365       1.35803214       1.35707413       0.00000000
Si      -1.35773892       1.35757602      -1.35745348       0.00000000
Si       1.35816246      -1.35739683      -1.35762592       0.00000000
Si      -1.35726651      -1.35979146       1.35779835       0.00000000
Si       0.00118917      -2.71248048       2.71290676       0.00000000
Si      -2.71386513       0.00179190      -2.71373443       0.00000000
Si       0.00193851       2.71591767       2.71176871       0.00000000
Si       2.71355562       0.00109143      -2.71414827       0.00000000
Si      -0.00034209      -2.71467963      -2.71387238       0.00000000
Si      -2.71515204      -2.71437012      -0.00017243       0.00000000
