10
Lattice="16.28999089631971 0.0 0.0 0.0 16.28999089631971 0.0 0.0 0.0 34.48637585096406" Properties=species:S:1:pos:R:3:initial_magmoms:R:1 pbc="T T T"
Si       1.35845568      -1.35268902       1.35510841       0.00000000
Si      -1.35788553      -1.35457866      -1.35797078       0.00000000
Si       1.35726651       1.35979146      -1.35779835       0.00000000
Si      -1.35801585       1.35907470       1.36041931       0.00000000
Si       2.69506647      -0.01404198       2.72890845       0.00000000
Si       2.71249677      -2.71218400      -0.00041384       0.00000000
Si      -0.00120546      -2.71263849      -2.71442416       0.00000000
Si      -2.71547784      -2.71324285      -0.00044832       0.00000000
Si      -2.71487511       0.00265527      -2.71528632       0.00000000
Si       2.71235016       2.71782360      -0.00072421       0.00000000
