10
Lattice="16.28999089631971 0.0 0.0 0.0 16.28999089631971 0.0 0.0 0.0 34.48637585096406" Properties=species:S:1:pos:R:3:initial_magmoms:R:1 pbc="T T T"
Si      -0.96289768      -1.77707610      -1.24123433       0.00000000
Si       0.91884885      -1.20213684       1.84136658       0.00000000
Si      -1.72391761       1.80693567       0.06428264       0.00000000
Si       1.89975120       1.11149928      -1.21043798       0.00000000
Si      -2.13813973      -0.29207970      -2.69459448       0.00000000
Si       0.61128388       2.43807543      -2.70156073       0.00000000
Si       0.60833050       0.55897506       3.64493607       0.00000000
Si      -3.56564872       1.02623742      -1.28096266       0.00000000
Si       3.01340076      -2.48741784       0.49398312       0.00000000
Si      -0.80659513       3.66326262      -1.30903459       0.00000000
