10
Lattice="16.28999089631971 0.0 0.0 0.0 16.28999089631971 0.0 0.0 0.0 34.48637585096406" Properties=species:S:1:pos:R:3:initial_magmoms:R:1 pbc="T T T"
Si       0.82254726       0.59183199      -2.06014827       0.00000000
Si       0.47117196      -2.29535874       0.32489633       0.00000000
Si       0.84607002       1.44951678       1.68183252       0.00000000
Si      -2.45241063      -0.22551876      -0.42163067       0.00000000
Si      -0.56236338       2.44426563      -2.33448755       0.00000000
Si      -1.11790125      -2.59915095       2.00445274       0.00000000
Si      -2.02538457      -1.72674000      -2.29700083       0.00000000
Si      -0.05501133      -1.01921643      -3.51199102       0.00000000
Si      -3.03285591      -1.25476983       1.62506791       0.00000000
Si       2.96050617       0.55332243       2.08753047       0.00000000
