10
Lattice="16.28999089631971 0.0 0.0 0.0 16.28999089631971 0.0 0.0 0.0 34.48637585096406" Properties=species:S:1:pos:R:3:initial_magmoms:R:1 pbc="T T T"
Si       1.35426915      -1.35796698      -1.35766040       0.00000000
Si       1.35588186       1.35713619       1.35824667       0.00000000
Si      -1.36037790      -1.35806472       1.35790181       0.00000000
Si      -1.36430379       1.35842310      -1.35948818       0.00000000
Si       2.69339481      -0.00674406      -2.72085242       0.00000000
Si      -2.69249265      -0.03429045      -2.72180080       0.00000000
Si       2.71091664      -2.71454931       0.00120702       0.00000000
Si       2.71137763       2.71609686       0.00320723       0.00000000
Si       2.71249238      -0.00053757       2.71532081       0.00000000
Si      -0.00250866       2.71440270       2.71552772       0.00000000
