10
Lattice="16.28999089631971 0.0 0.0 0.0 16.28999089631971 0.0 0.0 0.0 34.48637585096406" Properties=species:S:1:pos:R:3:initial_magmoms:R:1 pbc="T T T"
Si       1.34959392       1.33134912       1.36404039       0.00000000
Si       1.35314514      -1.35788553      -1.35469457       0.00000000
Si      -1.35902583       1.35513252      -1.35493598       0.00000000
Si      -1.36332639      -1.34330598       1.37749008       0.00000000
Si      -0.05660775       2.56161879       2.77205093       0.00000000
Si       2.71319285      -0.00081450      -2.71180319       0.00000000
Si      -0.00180819       2.71412577      -2.71159628       0.00000000
Si      -0.00193851      -2.71591767      -2.71176871       0.00000000
Si      -2.71665072      -0.00087966      -2.71183768       0.00000000
Si      -2.71498914       2.71466334       0.00617306       0.00000000
