10
Lattice="16.28999089631971 0.0 0.0 0.0 16.28999089631971 0.0 0.0 0.0 34.48637585096406" Properties=species:S:1:pos:R:3:initial_magmoms:R:1 pbc="T T T"
Si       1.40620167      -1.23026967      -1.40801054       0.00000000
Si       1.82436597       0.80767449       1.23799261       0.00000000
Si      -1.32564762      -1.28334249       1.56026797       0.00000000
Si      -1.30077279       1.50164478      -1.39190539       0.00000000
Si       0.61929693       1.30820103       3.24516978       0.00000000
Si      -2.57701284       0.38607300       2.63296729       0.00000000
Si      -2.68449426      -2.59631649       0.08831966       0.00000000
Si       0.05660775      -2.56161879      -2.77205093       0.00000000
Si       2.72401380      -2.69602758      -0.01155294       0.00000000
Si      -2.65838139       0.15304455      -2.76587786       0.00000000
