10
Lattice="16.28999089631971 0.0 0.0 0.0 16.28999089631971 0.0 0.0 0.0 34.48637585096406" Properties=species:S:1:pos:R:3:initial_magmoms:R:1 pbc="T T T"
Si       1.34564032      -1.34622189       1.35797078       0.00000000
Si      -1.35511623      -1.33639902      -1.38890853       0.00000000
Si      -1.36919079       1.36694277       1.35310820       0.00000000
Si       1.36308515       1.35316143      -1.38034555       0.00000000
Si      -2.11089078       0.55439757      -2.75706659       0.00000000
Si      -0.31229559       2.42488053      -2.63061532       0.00000000
Si       2.70287657      -2.70488934      -0.01069078       0.00000000
Si       2.70427099       0.00886176       2.71301022       0.00000000
Si      -0.00985545      -2.70518256       2.71301022       0.00000000
Si       2.70450394       2.72442105      -0.00617306       0.00000000
