10
Lattice="16.28999089631971 0.0 0.0 0.0 16.28999089631971 0.0 0.0 0.0 34.48637585096406" Properties=species:S:1:pos:R:3:initial_magmoms:R:1 pbc="T T T"
Si       0.69677217      -0.62592696      -2.16429719       0.00000000
Si       1.88075448      -1.16383905       0.83905399       0.00000000
Si       0.39892581       2.29796255      -0.52043419       0.00000000
Si      -1.92103083      -0.13567941       1.43746192       0.00000000
Si       2.09503314      -2.28522636      -1.20947236       0.00000000
Si      -1.85212413       2.63190104      -1.32441552       0.00000000
Si       3.19897223       0.76260006       1.33627884       0.00000000
Si      -0.77004459      -2.23363593      -2.92610165       0.00000000
Si      -2.14149969      -2.29890996       2.25672072       0.00000000
Si      -1.82824299       1.59337377       3.10729317       0.00000000
