10
Lattice="16.28999089631971 0.0 0.0 0.0 16.28999089631971 0.0 0.0 0.0 34.48637585096406" Properties=species:S:1:pos:R:3:initial_magmoms:R:1 pbc="T T T"
Si      -0.21497913       2.27888045      -0.50522569       0.00000000
Si       2.30993829      -0.44616681      -0.26202763       0.00000000
Si      -1.21171536      -1.47279519      -1.41559755       0.00000000
Si       1.38551337       2.29505642       1.49905462       0.00000000
Si       1.37409408       2.58267266      -2.18478210       0.00000000
Si       2.41960257      -2.08200861      -1.90599409       0.00000000
Si       3.18879423       1.69947773      -0.92802889       0.00000000
Si      -2.84978889      -2.40661944       0.24937112       0.00000000
Si       0.37445823      -3.20605119      -1.97751887       0.00000000
Si       2.15005194       0.62477919       3.13053325       0.00000000
