10
Lattice="16.28999089631971 0.0 0.0 0.0 16.28999089631971 0.0 0.0 0.0 34.48637585096406" Properties=species:S:1:pos:R:3:initial_magmoms:R:1 pbc="T T T"
Si      -1.35723624       1.35866745       1.36866156       0.00000000
Si       1.36094805      -1.35868374       1.36621303       0.00000000
Si      -1.37521907      -1.36417347      -1.35539810       0.00000000
Si       1.37161800       1.38437307      -1.37009275       0.00000000
Si      -2.70287657       2.70488934       0.01069078       0.00000000
Si       0.00539362      -2.64072303      -2.76734008       0.00000000
Si      -2.71434473      -2.71539639       0.00779393       0.00000000
Si       2.71520091       2.71454931       0.01117359       0.00000000
Si       2.71526607      -2.71643895       0.00975965       0.00000000
Si      -2.71273202      -0.00029322       2.72370100       0.00000000
