10
Lattice="16.28999089631971 0.0 0.0 0.0 16.28999089631971 0.0 0.0 0.0 34.48637585096406" Properties=species:S:1:pos:R:3:initial_magmoms:R:1 pbc="T T T"
Si      -1.78055957      -0.94516209       1.20634100       0.00000000
Si       1.87023209      -1.47362598       0.13200185       0.00000000
Si      -0.74712197      -0.16389369      -2.35478076       0.00000000
Si       1.13497643       1.93974804       1.06154297       0.00000000
Si      -0.38005319      -2.19379059       2.66533623       0.00000000
Si       2.37761672      -1.24778142      -2.21266232       0.00000000
Si       2.36678387       0.55475595       2.65064157       0.00000000
Si       1.00055949      -3.47034015       1.25339424       0.00000000
Si      -3.19156679      -2.23019874      -0.31846259       0.00000000
Si       1.12348220       0.03078810      -3.84173066       0.00000000
