10
Lattice="16.28999089631971 0.0 0.0 0.0 16.28999089631971 0.0 0.0 0.0 34.48637585096406" Properties=species:S:1:pos:R:3:initial_magmoms:R:1 pbc="T T T"
Si      -1.34564032       1.34622189      -1.35797078       0.00000000
Si       1.35863067       1.35508365       1.35503944       0.00000000
Si      -1.35549577      -1.35896067       1.35503944       0.00000000
Si       1.35723624      -1.35866745      -1.36866156       0.00000000
Si       0.00148469       2.71296918       2.71256189       0.00000000
Si      -2.71388629      -0.00169416       2.71232049       0.00000000
Si      -2.71137763      -2.71609686      -0.00320723       0.00000000
Si       2.71569192      -0.00151497       2.71225152       0.00000000
Si      -2.71483111       2.71316466      -0.00486258       0.00000000
Si       0.00111475      -2.71663443       2.71211357       0.00000000
