10
Lattice="16.28999089631971 0.0 0.0 0.0 16.28999089631971 0.0 0.0 0.0 34.48637585096406" Properties=species:S:1:pos:R:3:initial_magmoms:R:1 pbc="T T T"
Si      -1.09608309       1.25822331       1.76446192       0.00000000
Si      -0.00102627       1.20946734      -2.15526175       0.00000000
Si       2.44743892       0.30050163      -0.54391942       0.00000000
Si       1.69078471      -1.55610225       1.41497679       0.00000000
Si      -2.19378474      -1.57139856       0.11373613       0.00000000
Si       1.95507367       2.62917342       0.63623950       0.00000000
Si      -0.85497480      -0.60595542      -3.41784316       0.00000000
Si      -1.77229728      -2.46228237      -2.04452593       0.00000000
Si      -0.09461395       3.34668276       1.55550885       0.00000000
Si       1.68439903      -0.23532534       3.39894462       0.00000000
