10
Lattice="16.28999089631971 0.0 0.0 0.0 16.28999089631971 0.0 0.0 0.0 34.48637585096406" Properties=species:S:1:pos:R:3:initial_magmoms:R:1 pbc="T T T"
Si       0.78209919      -2.14923744       0.51812360       0.00000000
Si      -1.85266170       0.70299495       1.27789337       0.00000000
Si      -0.79188948       0.28645965      -2.22154460       0.00000000
Si       1.69468128       1.68643854       0.30127315       0.00000000
Si      -2.42507438       2.22628914      -0.44552974       0.00000000
Si      -0.81539595       1.93062564       3.02097373       0.00000000
Si       1.47878991       2.14254225       2.60468845       0.00000000
Si      -0.09580149       2.49932583      -2.83850621       0.00000000
Si       0.93599082       3.55789890      -0.98589706       0.00000000
Si       2.86544358      -2.51374248      -0.41049156       0.00000000
