10
Lattice="16.28999089631971 0.0 0.0 0.0 16.28999089631971 0.0 0.0 0.0 34.48637585096406" Properties=species:S:1:pos:R:3:initial_magmoms:R:1 pbc="T T T"
Si      -1.67538074       1.07171910      -1.25026977       0.00000000
Si       1.34141878       1.37125962       1.37417249       0.00000000
Si      -1.36308515      -1.35316143       1.38034555       0.00000000
Si       1.47960197      -1.28868561      -1.58953658       0.00000000
Si       2.71140941      -2.67367770      -0.00043798       0.00000000
Si      -3.47397593      -0.79876386      -1.37672103       0.00000000
Si      -2.71820138      -2.68956045      -0.00856297       0.00000000
Si       2.70114671       0.01301571       2.73572986       0.00000000
Si      -0.01744483      -2.69938332       2.73831633       0.00000000
Si       2.72225855       2.71718246       0.00006208       0.00000000
