10
Lattice="16.28999089631971 0.0 0.0 0.0 16.28999089631971 0.0 0.0 0.0 34.48637585096406" Properties=species:S:1:pos:R:3:initial_magmoms:R:1 pbc="T T T"
Si      -1.35848600       1.35921571       1.36176428       0.00000000
Si       1.35972793      -1.35824391       1.36155737       0.00000000
Si      -1.34141878      -1.37125962      -1.37417249       0.00000000
Si       1.38083977       1.34592284      -1.37411041       0.00000000
Si      -0.01990638       2.70051452      -2.66487756       0.00000000
Si       2.71357354      -2.71476108       0.00665587       0.00000000
Si      -2.70450394      -2.72442105       0.00617306       0.00000000
Si      -2.71277926       2.71666768       0.00558680       0.00000000
Si       2.71712476       2.71516248       0.00348313       0.00000000
Si       2.71461610       0.00079821       2.71849355       0.00000000
