10
Lattice="16.28999089631971 0.0 0.0 0.0 16.28999089631971 0.0 0.0 0.0 34.48637585096406" Properties=species:S:1:pos:R:3:initial_magmoms:R:1 pbc="T T T"
Si       1.35384561      -1.35651717      -1.35490149       0.00000000
Si       1.35488817       1.35904212       1.35693619       0.00000000
Si      -1.35996088      -1.35731538       1.35762592       0.00000000
Si      -1.35972793       1.35824391      -1.36155737       0.00000000
Si       0.01026270      -2.68669341      -2.73616783       0.00000000
Si       2.71199178      -2.71280628       0.00093113       0.00000000
Si       2.71261080       0.00169416       2.71456211       0.00000000
Si      -0.00289962      -2.71391400       2.71483800       0.00000000
Si       2.71264338       2.71649064       0.00051730       0.00000000
Si      -2.71859154      -2.71239903       0.00258648       0.00000000
