10
Lattice="16.28999089631971 0.0 0.0 0.0 16.28999089631971 0.0 0.0 0.0 34.48637585096406" Properties=species:S:1:pos:R:3:initial_magmoms:R:1 pbc="T T T"
Si       1.73283246      -1.35119034       0.84295096       0.00000000
Si      -1.08058412       1.62650993       1.35476355       0.00000000
Si      -1.31821775      -1.92643911      -0.49722484       0.00000000
Si       0.77957424       1.31295659      -1.89995897       0.00000000
Si       3.01358484      -1.47385404      -1.15674267       0.00000000
Si      -3.19897223      -0.76260006      -1.33627884       0.00000000
Si      -1.87223318       3.12470612      -0.29985921       0.00000000
Si      -0.59644043      -1.62422703       3.23592743       0.00000000
Si      -2.80004642       1.53536249      -1.85671303       0.00000000
Si       2.24518554      -0.17438445      -3.05318402       0.00000000
