10
Lattice="16.28999089631971 0.0 0.0 0.0 16.28999089631971 0.0 0.0 0.0 34.48637585096406" Properties=species:S:1:pos:R:3:initial_magmoms:R:1 pbc="T T T"
Si      -2.28833221      -0.47161179       0.11425343       0.00000000
Si       0.48918870      -2.32137387       0.37259101       0.00000000
Si       0.25943454      -0.15835509      -2.39756316       0.00000000
Si       0.31050369       1.71070154       1.76949693       0.00000000
Si       3.16335510       0.14444343       0.63789485       0.00000000
Si       1.89641664       0.26955063       2.77298206       0.00000000
Si       2.78337456      -2.10945726      -0.04369426       0.00000000
Si      -2.35381445      -1.66700457       2.15284770       0.00000000
Si      -0.54400455       1.97326864      -2.96676111       0.00000000
Si       2.91200040       2.23842423      -0.51815809       0.00000000
