10
Lattice="16.28999089631971 0.0 0.0 0.0 16.28999089631971 0.0 0.0 0.0 34.48637585096406" Properties=species:S:1:pos:R:3:initial_magmoms:R:1 pbc="T T T"
Si      -1.27424682       0.05075964      -1.93085878       0.00000000
Si      -1.43413317       1.12170564       1.46170210       0.00000000
Si       1.51830619      -1.64616966       0.70093598       0.00000000
Si       2.36758534      -1.72906947      -1.76215133       0.00000000
Si      -0.39539088       2.19640418      -2.59686004       0.00000000
Si       0.18451194       2.30136065       2.69632367       0.00000000
Si      -2.19867174       2.79198287      -0.16977652       0.00000000
Si       2.92846633      -0.41814801       2.36665787       0.00000000
Si       0.34260151      -3.05909910       2.39749216       0.00000000
Si      -0.12511860       3.86663417      -0.91695876       0.00000000
