10
Lattice="16.28999089631971 0.0 0.0 0.0 16.28999089631971 0.0 0.0 0.0 34.48637585096406" Properties=species:S:1:pos:R:3:initial_magmoms:R:1 pbc="T T T"
Si      -1.51830619       1.64616966      -0.70093598       0.00000000
Si      -1.17570469      -1.41292944       1.69655618       0.00000000
Si       1.41016014       1.22802165       1.66572189       0.00000000
Si       0.84927915      -0.08289981      -2.46308731       0.00000000
Si       3.37261644       2.26417968       0.39780057       0.00000000
Si      -2.95243937       2.76787530       0.76076612       0.00000000
Si      -2.31068111      -3.35267748       0.63501321       0.00000000
Si      -0.65959839      -1.12827798      -3.93389758       0.00000000
Si       0.06695190       2.59293863       3.28615483       0.00000000
Si      -2.79255302       1.69692930      -2.63179476       0.00000000
