10
Lattice="16.28999089631971 0.0 0.0 0.0 16.28999089631971 0.0 0.0 0.0 34.376317263855086" Properties=species:S:1:pos:R:3:initial_magmoms:R:1 pbc="T T T"
Si      -1.35583299      -1.35655493      -1.35679962       0.00000000
Si       1.35948195       1.35860718      -1.35686838       0.00000000
Si      -1.35443205       1.35924249       1.36157794       0.00000000
Si       1.36254447      -1.35417454       1.36243734       0.00000000
Si      -2.71329661       0.00171208      -2.71414927       0.00000000
Si       0.00161271      -2.71378598      -2.71418365       0.00000000
Si      -2.71542082      -2.71443758       0.00013751       0.00000000
Si       2.71410948      -2.71600142      -0.00061877       0.00000000
Si       0.00167787       2.71636239      -2.71401176       0.00000000
Si      -2.71469429       2.71642755      -0.00003438       0.00000000
