10
Lattice="16.28999089631971 0.0 0.0 0.0 16.28999089631971 0.0 0.0 0.0 34.376317263855086" Properties=species:S:1:pos:R:3:initial_magmoms:R:1 pbc="T T T"
Si       1.90597887       0.50161797       1.33617382       0.00000000
Si      -0.23495067      -2.34206217       0.52568294       0.00000000
Si       0.82837908      -0.86811039      -2.12868588       0.00000000
Si      -2.10673683       1.46241846       0.56573137       0.00000000
Si       3.34575423      -0.94534128      -0.00453768       0.00000000
Si      -2.00647188      -2.79261099       2.04968906       0.00000000
Si      -1.28633985       3.19098294       2.06924920       0.00000000
Si       2.96790768       2.59441056       1.02771496       0.00000000
Si      -0.76393584      -1.87714557      -3.58301117       0.00000000
Si       2.17082169      -0.36574308       3.55351628       0.00000000
