10
Lattice="16.28999089631971 0.0 0.0 0.0 16.28999089631971 0.0 0.0 0.0 34.376317263855086" Properties=species:S:1:pos:R:3:initial_magmoms:R:1 pbc="T T T"
Si      -0.13522329       0.83175111      -2.22555840       0.00000000
Si       2.16865512      -0.88536150       0.51519815       0.00000000
Si      -0.51031683       1.98444780       1.27598086       0.00000000
Si      -1.00233999      -2.12569839       0.60210153       0.00000000
Si      -0.43474752       1.24035318       3.45461556       0.00000000
Si       0.21129759      -3.60342782      -0.79808103       0.00000000
Si      -0.04872339      -2.46000177       2.76478561       0.00000000
Si       2.08562499      -1.40703246       2.79025848       0.00000000
Si       0.52398414      -0.92981691      -3.63395691       0.00000000
Si       1.36050822       2.71147050      -2.30397082       0.00000000
