10
Lattice="16.28999089631971 0.0 0.0 0.0 16.28999089631971 0.0 0.0 0.0 34.376317263855086" Properties=species:S:1:pos:R:3:initial_magmoms:R:1 pbc="T T T"
Si      -0.91732248      -0.25242984       2.20438258       0.00000000
Si      -1.47579255       0.22353138      -1.88897969       0.00000000
Si       1.31781213       2.01359061      -0.17762253       0.00000000
Si       0.92971917      -2.24158545      -0.32317194       0.00000000
Si      -2.19310641      -2.01222225      -2.09671589       0.00000000
Si      -0.02588481      -2.86863642      -2.38035504       0.00000000
Si       3.49220133       1.31979951       0.53187068       0.00000000
Si       0.27860787      -2.05952841       3.18359252       0.00000000
Si      -3.22899566      -0.74644038       2.06567406       0.00000000
Si       0.22980303      -3.64447536       1.47457295       0.00000000
