10
Lattice="16.28999089631971 0.0 0.0 0.0 16.28999089631971 0.0 0.0 0.0 34.376317263855086" Properties=species:S:1:pos:R:3:initial_magmoms:R:1 pbc="T T T"
Si      -0.94669335       1.52937036       1.46800707       0.00000000
Si       2.17676754      -0.47965905       0.68687358       0.00000000
Si       0.47874681       1.38166893      -1.84975629       0.00000000
Si      -1.54660518      -1.79098776       0.19622013       0.00000000
Si       2.01556170      -0.86682348       2.98280034       0.00000000
Si       2.81453733      -2.31207228      -0.66727907       0.00000000
Si      -1.28485746      -2.44599237       2.49410634       0.00000000
Si      -1.86023655       3.25707147       0.14981207       0.00000000
Si      -1.21885038       2.92944699      -2.11111958       0.00000000
Si       1.06251525       0.05536971      -3.67441785       0.00000000
