10
Lattice="16.28999089631971 0.0 0.0 0.0 16.28999089631971 0.0 0.0 0.0 34.376317263855086" Properties=species:S:1:pos:R:3:initial_magmoms:R:1 pbc="T T T"
Si       0.69102180      -1.70701281      -1.49457998       0.00000000
Si       1.54660518       1.79098776      -0.19622013       0.00000000
Si      -2.07932076       0.70265286      -0.93149559       0.00000000
Si       0.26174772      -0.65500461       2.29788621       0.00000000
Si       0.59991183       3.32035812       1.27178694       0.00000000
Si       0.06745689      -0.60564591      -3.67775236       0.00000000
Si      -1.57382577       1.11247668      -3.21552814       0.00000000
Si      -1.31528718      -2.37192174       2.59843852       0.00000000
Si       2.86541100      -2.40080391      -0.78508677       0.00000000
Si       2.49031746      -1.24810722       2.71645248       0.00000000
