10
Lattice="16.28999089631971 0.0 0.0 0.0 16.28999089631971 0.0 0.0 0.0 34.376317263855086" Properties=species:S:1:pos:R:3:initial_magmoms:R:1 pbc="T T T"
Si       1.58908950       0.73894698       1.51575580       0.00000000
Si      -0.58692870       1.91368404      -1.26498043       0.00000000
Si      -1.81765449      -1.17116955       1.01650827       0.00000000
Si       0.67396617      -1.38961845      -1.86955706       0.00000000
Si      -2.59472007       0.84999591      -1.88543893       0.00000000
Si      -2.71386513      -1.52203986      -1.17443316       0.00000000
Si       2.99403684       1.95038541       0.06799639       0.00000000
Si      -0.90306873      -3.10653558      -1.56900475       0.00000000
Si       2.90253591      -1.98272106      -1.45099079       0.00000000
Si      -2.72294029       0.17948322       2.74587863       0.00000000
