10
Lattice="16.28999089631971 0.0 0.0 0.0 16.28999089631971 0.0 0.0 0.0 34.376317263855086" Properties=species:S:1:pos:R:3:initial_magmoms:R:1 pbc="T T T"
Si      -1.35941679      -1.34715042       1.37387779       0.00000000
Si       1.35755973       1.36664955       1.37332777       0.00000000
Si      -1.27259109       1.42025994      -1.40705783       0.00000000
Si       1.26628686      -1.34832330      -1.55655020       0.00000000
Si       2.08795446       0.52914807      -2.79292750       0.00000000
Si       0.35083773       2.31616107      -2.87873083       0.00000000
Si      -0.39527685      -2.56481163      -2.78058639       0.00000000
Si       2.70578529      -2.69000028      -0.00854939       0.00000000
Si      -2.72793969      -2.68107336       0.00574085       0.00000000
Si       2.70371646       2.72976417       0.01621188       0.00000000
