10
Lattice="16.28999089631971 0.0 0.0 0.0 16.28999089631971 0.0 0.0 0.0 34.376317263855086" Properties=species:S:1:pos:R:3:initial_magmoms:R:1 pbc="T T T"
Si      -0.79834032      -1.69811847       1.46199121       0.00000000
Si      -2.11651083       1.04352111      -0.50636344       0.00000000
Si       1.80217899       1.48618557       0.83991703       0.00000000
Si       0.89075349      -1.25612190      -1.96893905       0.00000000
Si      -0.87136839       1.88384632      -2.66141597       0.00000000
Si      -0.92330091      -2.89197999      -2.01108444       0.00000000
Si      -2.21964282      -2.98175418       0.07174341       0.00000000
Si      -1.77877026       3.28219784       0.07201842       0.00000000
Si       0.89925687      -3.24589653       1.72335450       0.00000000
Si       2.98304109       0.22001274       2.47942764       0.00000000
