10
Lattice="16.28999089631971 0.0 0.0 0.0 16.28999089631971 0.0 0.0 0.0 34.376317263855086" Properties=species:S:1:pos:R:3:initial_magmoms:R:1 pbc="T T T"
Si       1.46714256      -1.76125851      -0.47528723       0.00000000
Si      -1.93987836      -1.29114540       0.37343014       0.00000000
Si       0.65847438       1.18315899       1.98103952       0.00000000
Si       0.11010411       0.77045184      -2.31376808       0.00000000
Si       0.07969068      -2.84889294      -2.02820385       0.00000000
Si       3.38952546      -0.52308819      -0.92376091       0.00000000
Si      -0.83385252      -1.12119183      -3.34639885       0.00000000
Si       2.45167758       0.92699874      -2.57678143       0.00000000
Si      -1.22489397       2.55467340       2.39761196       0.00000000
Si      -1.51936830      -3.52095318      -0.39752795       0.00000000
