10
Lattice="16.28999089631971 0.0 0.0 0.0 16.28999089631971 0.0 0.0 0.0 34.376317263855086" Properties=species:S:1:pos:R:3:initial_magmoms:R:1 pbc="T T T"
Si      -1.22627862       1.44263751       1.41186708       0.00000000
Si       1.49100741      -1.27099045       1.39512924       0.00000000
Si       1.08535383       1.84500051      -1.10939485       0.00000000
Si      -1.83065391      -0.95046286      -1.61043309       0.00000000
Si      -0.54415116       0.91150206      -3.57387192       0.00000000
Si      -2.54718585       2.73917490      -0.06749450       0.00000000
Si      -2.69962767      -2.61361225       0.00061190       0.00000000
Si      -2.57870700       0.09443965       2.78009340       0.00000000
Si       0.13949127      -2.62537363       2.77469631       0.00000000
Si       2.83506273      -2.58044581      -0.14240741       0.00000000
