10
Lattice="16.28999089631971 0.0 0.0 0.0 16.28999089631971 0.0 0.0 0.0 34.376317263855086" Properties=species:S:1:pos:R:3:initial_magmoms:R:1 pbc="T T T"
Si       1.35509994       1.35618393       1.35693713       0.00000000
Si       1.35738054      -1.35716385      -1.35793404       0.00000000
Si      -1.35707103       1.35738450      -1.35803717       0.00000000
Si      -1.35992178      -1.35993315       1.35569958       0.00000000
Si       0.00060273       2.71260661      -2.71476804       0.00000000
Si       0.00206883       2.71276951       2.71614310       0.00000000
Si      -0.00285075      -2.71089543       2.71810255       0.00000000
Si      -2.71454931       2.71467544      -0.00055002       0.00000000
Si       2.71339272       0.00006046      -2.71586809       0.00000000
Si      -0.00078192      -2.71470729      -2.71476804       0.00000000
