10
Lattice="16.28999089631971 0.0 0.0 0.0 16.28999089631971 0.0 0.0 0.0 34.376317263855086" Properties=species:S:1:pos:R:3:initial_magmoms:R:1 pbc="T T T"
Si       1.35570267      -1.35082056      -1.35724652       0.00000000
Si      -1.35767376      -1.35522211       1.35673087       0.00000000
Si       1.35731538       1.35953082       1.35686838       0.00000000
Si      -1.35710361       1.36003581      -1.36453430       0.00000000
Si      -0.01141929      -2.70742148      -2.71498118       0.00000000
Si       2.71278999      -2.71254616      -0.00110004       0.00000000
Si      -0.00060273      -2.71260661       2.71476804       0.00000000
Si      -2.71590138      -2.71305649       0.00044689       0.00000000
Si       2.71459818       0.00205254       2.71445866       0.00000000
Si      -2.71515204       0.00206883       2.71421802       0.00000000
