10
Lattice="16.28999089631971 0.0 0.0 0.0 16.28999089631971 0.0 0.0 0.0 34.376317263855086" Properties=species:S:1:pos:R:3:initial_magmoms:R:1 pbc="T T T"
Si       1.35653346       1.35757602       1.35710901       0.00000000
Si       1.35708732      -1.35689184      -1.35786529       0.00000000
Si      -1.35728280       1.35747828      -1.35759028       0.00000000
Si      -1.36010097      -1.35847523       1.35724652       0.00000000
Si       2.71450044      -2.71441119      -0.00010313       0.00000000
Si      -2.71459818      -0.00205254      -2.71445866       0.00000000
Si      -2.71313208      -0.00188964       2.71645248       0.00000000
Si      -2.71520091      -2.71465915       0.00030939       0.00000000
Si       2.71546155       0.00058644      -2.71442428       0.00000000
Si       2.71204065       0.00272043       2.71796504       0.00000000
