10
Lattice="16.28999089631971 0.0 0.0 0.0 16.28999089631971 0.0 0.0 0.0 34.376317263855086" Properties=species:S:1:pos:R:3:initial_magmoms:R:1 pbc="T T T"
Si      -1.35509994      -1.35618393      -1.35693713       0.00000000
Si      -1.35303111       1.35658559       1.35920597       0.00000000
Si       1.36010097       1.35847523      -1.35724652       0.00000000
Si       1.36251189      -1.35555999       1.36130292       0.00000000
Si      -0.00376299       2.71880426       2.70655210       0.00000000
Si      -2.71217097       0.00120057      -2.71497430       0.00000000
Si       0.00228060      -2.71334778      -2.71487117       0.00000000
Si      -2.71370223       2.71579061      -0.00013751       0.00000000
Si       2.70914103      -0.00297944       2.72068077       0.00000000
Si       0.00281817       2.71595351      -2.71483680       0.00000000
