10
Lattice="16.28999089631971 0.0 0.0 0.0 16.28999089631971 0.0 0.0 0.0 34.376317263855086" Properties=species:S:1:pos:R:3:initial_magmoms:R:1 pbc="T T T"
Si       0.14843448      -0.02746141      -2.45309537       0.00000000
Si       0.82473012       2.38003644       0.53599584       0.00000000
Si      -2.03025528      -0.10080743       1.59155563       0.00000000
Si       1.71686826      -2.05145348      -0.03557951       0.00000000
Si      -0.84939318      -1.36698026       3.23106624       0.00000000
Si       3.13211088       1.88687298       0.32533765       0.00000000
Si      -0.25897842       3.54247455      -1.23056972       0.00000000
Si       2.81339703      -1.57399358       1.98468341       0.00000000
Si      -0.71133543       2.07189480      -3.24498866       0.00000000
Si       1.43896086      -0.66957278       3.66235176       0.00000000
