10
Lattice="16.28999089631971 0.0 0.0 0.0 16.28999089631971 0.0 0.0 0.0 34.376317263855086" Properties=species:S:1:pos:R:3:initial_magmoms:R:1 pbc="T T T"
Si       1.19198817      -0.13906773      -1.96629207       0.00000000
Si      -2.19862872      -0.40170977      -0.75751695       0.00000000
Si      -0.24127119       2.31635655       0.55576223       0.00000000
Si       0.99802314      -1.79303476       1.37842234       0.00000000
Si      -0.32430132       1.79468559       2.83082256       0.00000000
Si       0.98692965      -2.51974439      -2.25852531       0.00000000
Si      -3.41226630       1.07601966       0.64266561       0.00000000
Si       3.38248818       0.51236937      -1.38020991       0.00000000
Si       0.36487971       1.66198725      -3.28558711       0.00000000
Si      -2.43866187      -2.75946803      -0.67669818       0.00000000
