10
Lattice="16.28999089631971 0.0 0.0 0.0 16.28999089631971 0.0 0.0 0.0 34.376317263855086" Properties=species:S:1:pos:R:3:initial_magmoms:R:1 pbc="T T T"
Si      -1.68612903      -0.94004703       1.35402687       0.00000000
Si      -0.21147678       0.39873033      -2.47543999       0.00000000
Si       1.02947913       1.83542688       1.40852711       0.00000000
Si       1.74601107      -1.85421088      -0.13441148       0.00000000
Si       1.61469738       1.90050543      -2.06863042       0.00000000
Si      -0.36916398      -2.16590930       2.89838035       0.00000000
Si       3.03251382       0.00775404      -2.09785031       0.00000000
Si      -2.72204271      -2.57951240       0.00343763       0.00000000
Si       2.35038636       0.53888949       2.88788869       0.00000000
Si       0.87703731      -3.51736028       1.47663351       0.00000000
