10
Lattice="16.28999089631971 0.0 0.0 0.0 16.28999089631971 0.0 0.0 0.0 34.376317263855086" Properties=species:S:1:pos:R:3:initial_magmoms:R:1 pbc="T T T"
Si       1.35267273       1.34063442      -1.36738410       0.00000000
Si       1.35347094      -1.35430173       1.35817468       0.00000000
Si      -1.35974259       1.35843939       1.35844969       0.00000000
Si      -1.35529542      -1.34583093      -1.39892782       0.00000000
Si      -0.06491565       2.66872554      -2.73660389       0.00000000
Si       2.71217097      -2.71609686      -0.00103129       0.00000000
Si       2.71210581       0.00154755       2.71665874       0.00000000
Si       2.71182888       2.71725345      -0.00398766       0.00000000
Si      -0.00296478      -2.71336014       2.71631498       0.00000000
Si      -2.71738377      -2.71285515      -0.00508770       0.00000000
