10
Lattice="16.28999089631971 0.0 0.0 0.0 16.28999089631971 0.0 0.0 0.0 34.376317263855086" Properties=species:S:1:pos:R:3:initial_magmoms:R:1 pbc="T T T"
Si      -0.40617486      -1.82475693      -1.34610858       0.00000000
Si       1.44721989      -0.97837740       1.53521281       0.00000000
Si      -2.37438153       0.19124460       0.41825689       0.00000000
Si       1.32063030       1.49449347      -1.41888329       0.00000000
Si       1.59534486       2.66862780       0.71939359       0.00000000
Si      -2.65406454       1.19816208      -1.68890941       0.00000000
Si       2.78928783       0.94369599       1.76553427       0.00000000
Si      -1.72796175      -0.45913365      -3.03450235       0.00000000
Si      -2.35437741       1.80532296       2.05147663       0.00000000
Si      -0.50046138       3.21546681       1.65439557       0.00000000
