10
Lattice="16.28999089631971 0.0 0.0 0.0 16.28999089631971 0.0 0.0 0.0 34.376317263855086" Properties=species:S:1:pos:R:3:initial_magmoms:R:1 pbc="T T T"
Si      -0.63776979       1.83241323       1.35415265       0.00000000
Si       2.17243440      -0.68232294       0.69316445       0.00000000
Si      -1.49573151      -1.87971939       0.07841242       0.00000000
Si      -0.01943397       0.93294459      -2.22256766       0.00000000
Si      -2.81453733       2.31207228       0.66727907       0.00000000
Si       0.79420266       3.61880721       0.70443989       0.00000000
Si      -1.36050822      -2.71147050       2.30397082       0.00000000
Si       2.95816626      -2.43178749      -0.64630950       0.00000000
Si       2.63220336       2.83595868      -0.49859438       0.00000000
Si      -3.67012071      -1.18592829      -0.63108079       0.00000000
