10
Lattice="16.28999089631971 0.0 0.0 0.0 16.28999089631971 0.0 0.0 0.0 34.376317263855086" Properties=species:S:1:pos:R:3:initial_magmoms:R:1 pbc="T T T"
Si       0.78573186      -1.74946455      -1.33947395       0.00000000
Si       0.16798248      -1.16080911       2.05470801       0.00000000
Si       1.59254298       1.76335992      -0.03705769       0.00000000
Si      -2.17243440       0.68232294      -0.69316445       0.00000000
Si       2.77739613      -2.38617549      -0.18473843       0.00000000
Si       0.45976896       3.51828162      -1.19175883       0.00000000
Si      -2.81020419       2.51473617       0.66098820       0.00000000
Si      -1.36428750      -2.91450906       2.12600453       0.00000000
Si       2.31550947      -2.08612998       2.27777605       0.00000000
Si      -3.66816591      -1.19739645      -0.61475203       0.00000000
