10
Lattice="16.28999089631971 0.0 0.0 0.0 16.28999089631971 0.0 0.0 0.0 34.376317263855086" Properties=species:S:1:pos:R:3:initial_magmoms:R:1 pbc="T T T"
Si       1.97139951       1.26726426       0.00068753       0.00000000
Si      -0.06898815      -0.17956467      -2.38396456       0.00000000
Si      -2.02127949       1.11276990       0.73001588       0.00000000
Si       0.52795890      -1.83730023       1.53256583       0.00000000
Si      -2.08544580       2.28993417      -1.31877940       0.00000000
Si      -2.27157534       0.40827627      -2.72246834       0.00000000
Si       3.04054479       0.42815007       1.88588582       0.00000000
Si      -1.29821526      -3.33907533       1.12575627       0.00000000
Si       3.09757608       0.87443091      -2.04302005       0.00000000
Si       1.68860511       3.56358411      -0.23104336       0.00000000
