10
Lattice="16.28999089631971 0.0 0.0 0.0 16.28999089631971 0.0 0.0 0.0 34.376317263855086" Properties=species:S:1:pos:R:3:initial_magmoms:R:1 pbc="T T T"
Si      -0.48698955       0.75914658      -2.16825549       0.00000000
Si      -2.02955481      -0.59722398       1.15584141       0.00000000
Si       0.73076940       2.08243215       1.11968781       0.00000000
Si       1.90768932      -1.72696806      -0.37133563       0.00000000
Si      -2.73232170       0.37049976      -1.50664852       0.00000000
Si      -0.61196643      -1.92531510       2.52506120       0.00000000
Si       2.11367637       0.81370179       2.53234898       0.00000000
Si       0.78387480      -3.29404977       1.07901029       0.00000000
Si       3.50428851      -0.54569871       1.16626775       0.00000000
Si       1.10470635       2.72163546      -2.37437601       0.00000000
