10
Lattice="16.28999089631971 0.0 0.0 0.0 16.28999089631971 0.0 0.0 0.0 34.376317263855086" Properties=species:S:1:pos:R:3:initial_magmoms:R:1 pbc="T T T"
Si       0.65526525      -2.24349138       0.01079417       0.00000000
Si      -1.51461162      -0.76442454      -1.66900551       0.00000000
Si       1.72729386       1.66268772      -0.31598728       0.00000000
Si      -1.02306087      -0.05877432       2.24030585       0.00000000
Si      -2.91955896      -1.97586297      -0.22124610       0.00000000
Si       1.57545477      -2.47968009      -2.13129849       0.00000000
Si       2.42963721      -2.28631779       1.48206699       0.00000000
Si      -3.21517359      -0.88140303       1.82538347       0.00000000
Si      -1.34441370      -3.55996773       0.39433096       0.00000000
Si      -2.10906630       0.95856876      -3.07974161       0.00000000
