10
Lattice="16.28999089631971 0.0 0.0 0.0 16.28999089631971 0.0 0.0 0.0 34.376317263855086" Properties=species:S:1:pos:R:3:initial_magmoms:R:1 pbc="T T T"
Si       1.35705474       1.35527913       1.35652461       0.00000000
Si      -1.35777150       1.35752715      -1.35714339       0.00000000
Si       1.35773892      -1.35829278      -1.35683400       0.00000000
Si      -1.35788553      -1.35858600       1.35824343       0.00000000
Si       2.71236645       0.00309510       2.71634936       0.00000000
Si       2.71454931       2.71493897       0.00037814       0.00000000
Si       2.71495656      -0.00175932      -2.71473367       0.00000000
Si       2.71440270      -2.71538010       0.00017188       0.00000000
Si      -0.00175932       2.71475146      -2.71507743       0.00000000
Si      -2.71515204       2.71469100       0.00079066       0.00000000
