10
Lattice="16.28999089631971 0.0 0.0 0.0 16.28999089631971 0.0 0.0 0.0 34.376317263855086" Properties=species:S:1:pos:R:3:initial_magmoms:R:1 pbc="T T T"
Si      -1.72797804      -1.01330316      -1.32625423       0.00000000
Si       1.35614250      -1.30199454       1.49695539       0.00000000
Si       1.55618370       1.28775708      -1.34134544       0.00000000
Si      -1.34804637       1.43426934       1.50711703       0.00000000
Si      -3.40333612       0.84623292      -1.02215046       0.00000000
Si      -2.71245116      -2.59226354       0.12915190       0.00000000
Si       2.74012461      -2.77084755      -0.00718809       0.00000000
Si      -0.00340461      -2.64544387       2.89194368       0.00000000
Si      -2.68925257       2.85470847       0.09425648       0.00000000
Si       2.71140534       0.07074747       2.88761226       0.00000000
