10
Lattice="16.28999089631971 0.0 0.0 0.0 16.28999089631971 0.0 0.0 0.0 34.376317263855086" Properties=species:S:1:pos:R:3:initial_magmoms:R:1 pbc="T T T"
Si      -1.39219783       1.27601199       1.43958128       0.00000000
Si      -0.71408355      -2.00847555      -1.11640693       0.00000000
Si       1.34120620      -1.42043913       1.41286055       0.00000000
Si       0.77511241       1.83679524      -1.37554646       0.00000000
Si       2.58859666       2.64254751       0.06898987       0.00000000
Si      -2.70302155       2.64914496       0.07226593       0.00000000
Si      -2.70592117      -2.73132801       0.03199406       0.00000000
Si       0.22986819      -1.73027493      -3.43162952       0.00000000
Si      -0.02941322       2.64789063       2.79734344       0.00000000
Si       2.68516378      -0.07304436       2.79864974       0.00000000
