10
Lattice="16.28999089631971 0.0 0.0 0.0 16.28999089631971 0.0 0.0 0.0 34.376317263855086" Properties=species:S:1:pos:R:3:initial_magmoms:R:1 pbc="T T T"
Si      -1.35648896      -1.35785295       1.35666212       0.00000000
Si      -1.35766184       1.35798327      -1.35587146       0.00000000
Si       1.35834610       1.35702216       1.35683400       0.00000000
Si       1.35656071      -1.35669636      -1.36178419       0.00000000
Si      -0.00358817       2.70213633      -2.71824005       0.00000000
Si      -2.71268033       2.71373481      -0.00096254       0.00000000
Si       0.00141009       2.71406061       2.71411489       0.00000000
Si      -2.71430933      -0.00021177       2.71418365       0.00000000
Si      -2.71355999      -2.71523349       0.00010313       0.00000000
Si      -2.70176603       0.01299942      -2.72698196       0.00000000
