10
Lattice="16.28999089631971 0.0 0.0 0.0 16.28999089631971 0.0 0.0 0.0 34.376317263855086" Properties=species:S:1:pos:R:3:initial_magmoms:R:1 pbc="T T T"
Si       1.35747828       1.35518499       1.35755590       0.00000000
Si      -1.35741312       1.35751935      -1.35776216       0.00000000
Si      -1.35749457      -1.35965984       1.35614647       0.00000000
Si       1.35796698      -1.35777020      -1.35779654       0.00000000
Si      -0.00218286      -2.71184387       2.71597122       0.00000000
Si      -2.71450044       2.71441119       0.00010313       0.00000000
Si       0.00096111       2.71499763      -2.71432115       0.00000000
Si      -2.71454931      -2.71493897      -0.00037814       0.00000000
Si       2.71520441       0.00024526      -2.71476804       0.00000000
Si       2.71556641       2.71478586      -0.00013751       0.00000000
