10
Lattice="16.28999089631971 0.0 0.0 0.0 16.28999089631971 0.0 0.0 0.0 34.376317263855086" Properties=species:S:1:pos:R:3:initial_magmoms:R:1 pbc="T T T"
Si       1.35707103       1.35738054       1.35655899       0.00000000
Si      -1.35760860       1.35415512      -1.36051227       0.00000000
Si      -1.35837423      -1.35747828       1.35655899       0.00000000
Si       1.35738054      -1.35667681      -1.35961848       0.00000000
Si       2.70415649       0.00130320      -2.72377121       0.00000000
Si       2.71460530      -0.00021177       2.71418365       0.00000000
Si       2.71355999       2.71523349      -0.00010313       0.00000000
Si       2.71424330      -2.71475236      -0.00044689       0.00000000
Si      -0.00074934       2.71502172       2.71408052       0.00000000
Si      -0.00096111      -2.71499763       2.71432115       0.00000000
