10
Lattice="16.28999089631971 0.0 0.0 0.0 16.28999089631971 0.0 0.0 0.0 34.376317263855086" Properties=species:S:1:pos:R:3:initial_magmoms:R:1 pbc="T T T"
Si       1.34791346       1.33199358       1.37470970       0.00000000
Si       1.35232968      -1.36000615      -1.35827781       0.00000000
Si      -1.36102950       1.35379612      -1.35759028       0.00000000
Si      -1.37720547      -1.35676444       1.37460657       0.00000000
Si      -0.08962758       2.55613333       2.79321484       0.00000000
Si       2.71090754      -2.71481287       0.00357514       0.00000000
Si       2.71331846       2.71367392       0.00316262       0.00000000
Si       2.71191752      -0.00212349      -2.71521494       0.00000000
Si      -0.00294137       2.71339699      -2.71528369       0.00000000
Si      -0.00267133      -2.71665364      -2.71500868       0.00000000
