10
Lattice="16.28999089631971 0.0 0.0 0.0 16.28999089631971 0.0 0.0 0.0 34.376317263855086" Properties=species:S:1:pos:R:3:initial_magmoms:R:1 pbc="T T T"
Si       1.23665535      -1.37353452       1.42799302       0.00000000
Si      -1.34662914      -1.35258055      -1.35937785       0.00000000
Si       1.36300059       1.36417510      -1.35996225       0.00000000
Si      -1.44462978       1.32538861       1.34968372       0.00000000
Si       0.06659352       2.57786155       2.69046397       0.00000000
Si      -0.39939822      -2.60397835       2.74536298       0.00000000
Si       2.70676269      -2.70833209       0.01172233       0.00000000
Si      -2.70914103       0.00297944      -2.72068077       0.00000000
Si      -2.72153772      -2.71245346       0.02574788       0.00000000
Si       0.00796581      -2.71261636      -2.72188395       0.00000000
