10
Lattice="16.28999089631971 0.0 0.0 0.0 16.28999089631971 0.0 0.0 0.0 34.376317263855086" Properties=species:S:1:pos:R:3:initial_magmoms:R:1 pbc="T T T"
Si       1.49652972      -1.37384159      -1.09877084       0.00000000
Si       0.37786284       0.23985396       2.27138206       0.00000000
Si      -2.19050001      -0.65143710      -0.58608216       0.00000000
Si       0.51792426       2.33232075      -0.37477082       0.00000000
Si       0.05603760       2.63236626       2.08774367       0.00000000
Si       2.01668571       1.79967033      -2.18482244       0.00000000
Si      -1.47374001       2.96903169      -1.52950634       0.00000000
Si      -3.38248818      -0.51236937       1.38020991       0.00000000
Si       3.48827285      -0.07582995      -1.24380461       0.00000000
Si      -3.01760847       1.14961788      -1.90537720       0.00000000
