10
Lattice="16.28999089631971 0.0 0.0 0.0 16.28999089631971 0.0 0.0 0.0 34.376317263855086" Properties=species:S:1:pos:R:3:initial_magmoms:R:1 pbc="T T T"
Si      -1.49652972       1.37384159       1.09877084       0.00000000
Si       0.63195426      -1.75524654       1.37605037       0.00000000
Si      -0.92665665      -0.84782445      -2.00121843       0.00000000
Si       1.99174313       1.29801163      -0.14503376       0.00000000
Si       0.52015599       3.17351191      -1.08605160       0.00000000
Si       2.46382245      -2.45065035      -0.02454470       0.00000000
Si       3.34804202      -0.46029838       0.93029242       0.00000000
Si       0.94485258      -1.18980435      -3.46221273       0.00000000
Si      -3.68702973       0.72240448       0.51268868       0.00000000
Si      -2.51765208      -2.56269297      -1.45721290       0.00000000
