10
Lattice="16.28999089631971 0.0 0.0 0.0 16.28999089631971 0.0 0.0 0.0 34.376317263855086" Properties=species:S:1:pos:R:3:initial_magmoms:R:1 pbc="T T T"
Si      -1.31082372       1.37313297      -1.36731535       0.00000000
Si      -1.35407367      -1.34415306       1.36236859       0.00000000
Si       1.36278460       1.37187864       1.35776216       0.00000000
Si       1.39219783      -1.27601199      -1.43958128       0.00000000
Si       2.16731024       0.56078325      -2.81512774       0.00000000
Si       0.37554707       2.27851488      -2.88185220       0.00000000
Si      -2.69817786      -2.68913691      -0.00874190       0.00000000
Si       0.00358817      -2.70213633       2.71824005       0.00000000
Si      -2.70909216       0.01159848       2.71727752       0.00000000
Si       2.73340403      -2.69645112      -0.02672073       0.00000000
