10
Lattice="16.28999089631971 0.0 0.0 0.0 16.28999089631971 0.0 0.0 0.0 34.376317263855086" Properties=species:S:1:pos:R:3:initial_magmoms:R:1 pbc="T T T"
Si       1.32683746       1.34583093       1.36934699       0.00000000
Si       1.35256752      -1.35840681      -1.35573396       0.00000000
Si      -1.36133901       1.35524655      -1.35549332       0.00000000
Si      -1.35311256      -1.35495333       1.37955676       0.00000000
Si       2.47929632      -0.14634936       2.82570048       0.00000000
Si       2.71102157      -0.00089595      -2.71270546       0.00000000
Si      -0.00306530       2.71363707      -2.71273984       0.00000000
Si       2.71282976      -2.71559187       0.00587835       0.00000000
Si      -0.00343007      -2.71586880      -2.71256796       0.00000000
Si       2.71173833       2.71671588       0.00783780       0.00000000
