10
Lattice="16.28999089631971 0.0 0.0 0.0 16.28999089631971 0.0 0.0 0.0 34.376317263855086" Properties=species:S:1:pos:R:3:initial_magmoms:R:1 pbc="T T T"
Si      -0.77582754      -2.17823364       0.48731895       0.00000000
Si      -0.01373247       1.44904437       1.90874608       0.00000000
Si      -1.59905898       1.26149760      -1.39667617       0.00000000
Si       1.74741920      -2.51276508      -1.51252443       0.00000000
Si      -0.02793735       2.24899740      -2.91329139       0.00000000
Si      -2.10180096      -1.92070503       2.39929640       0.00000000
Si       0.77520919       0.16141761       3.71126929       0.00000000
Si       2.55838427      -0.57443427      -2.85849551       0.00000000
Si      -2.59079418      -0.37988280      -2.88503404       0.00000000
Si       1.72508561       3.13248555      -1.59210565       0.00000000
