10
Lattice="16.28999089631971 0.0 0.0 0.0 16.28999089631971 0.0 0.0 0.0 34.376317263855086" Properties=species:S:1:pos:R:3:initial_magmoms:R:1 pbc="T T T"
Si      -1.44954936      -0.24886233      -1.86880078       0.00000000
Si       1.42746079       1.83326031      -0.55682790       0.00000000
Si      -1.49876145       0.53265042       1.81005162       0.00000000
Si       1.47158714      -1.87550028       0.94101783       0.00000000
Si       0.51531786       1.74702105       2.77791737       0.00000000
Si       2.66035967      -1.61059230      -1.24854854       0.00000000
Si       1.62447042      -0.34481043       2.91384141       0.00000000
Si      -0.52015599      -3.17351191       1.08605160       0.00000000
Si      -2.01668571      -1.79967033       2.18482244       0.00000000
Si      -2.66642865       1.75039308      -1.43720588       0.00000000
