10
Lattice="16.28999089631971 0.0 0.0 0.0 16.28999089631971 0.0 0.0 0.0 34.376317263855086" Properties=species:S:1:pos:R:3:initial_magmoms:R:1 pbc="T T T"
Si       1.96287984      -0.55157940      -1.15246668       0.00000000
Si      -1.19394297       1.72493181      -1.04614067       0.00000000
Si      -1.34206794      -1.92207339      -0.23032145       0.00000000
Si       0.76818753       0.74350818       2.11204774       0.00000000
Si       2.75182150      -1.83920616       0.65005652       0.00000000
Si      -2.78928783      -0.94369599      -1.76553427       0.00000000
Si      -1.46865753       0.55079748      -3.18441755       0.00000000
Si      -1.35925389       1.00971936       3.16461678       0.00000000
Si       3.10791438       1.52485803      -0.99024475       0.00000000
Si      -2.16606501      -2.50310511       1.86220052       0.00000000
