10
Lattice="16.28999089631971 0.0 0.0 0.0 16.28999089631971 0.0 0.0 0.0 34.376317263855086" Properties=species:S:1:pos:R:3:initial_magmoms:R:1 pbc="T T T"
Si       1.00085827       1.52684541      -1.48096695       0.00000000
Si       1.10915256      -2.09183148       0.13592403       0.00000000
Si      -0.48632166       0.78706764       2.20304190       0.00000000
Si      -2.01407931      -1.21437063      -0.96786575       0.00000000
Si      -2.47596597      -0.91432512       1.49464873       0.00000000
Si      -0.51531786      -1.74702105      -2.77791737       0.00000000
Si       1.83885497       1.58778630       2.38021754       0.00000000
Si      -1.07149104       2.66895360      -1.87275406       0.00000000
Si       0.91214293       0.08623926      -3.33474527       0.00000000
Si       0.04614957      -2.70915732       2.20830148       0.00000000
