10
Lattice="16.28999089631971 0.0 0.0 0.0 16.28999089631971 0.0 0.0 0.0 34.376317263855086" Properties=species:S:1:pos:R:3:initial_magmoms:R:1 pbc="T T T"
Si      -1.99166427       0.63671094      -1.15473552       0.00000000
Si       1.49876145      -0.53265042      -1.81005162       0.00000000
Si      -0.51792426      -2.33232075       0.37477082       0.00000000
Si      -0.46188666       0.30004551       2.46251449       0.00000000
Si       2.01407931       1.21437063       0.96786575       0.00000000
Si      -0.14006142      -2.09246679       2.64615288       0.00000000
Si       3.12323187      -0.87746085       1.10378979       0.00000000
Si      -2.60941365       1.22536638       2.23944644       0.00000000
Si      -1.16766720       1.21774266      -3.24725750       0.00000000
Si      -2.77739613       2.38617549       0.18473843       0.00000000
