10
Lattice="16.28999089631971 0.0 0.0 0.0 16.28999089631971 0.0 0.0 0.0 34.376317263855086" Properties=species:S:1:pos:R:3:initial_magmoms:R:1 pbc="T T T"
Si       0.48632166      -0.78706764      -2.20304190       0.00000000
Si       0.00272043      -1.81649790       1.64473582       0.00000000
Si       2.32517663       0.80071866       0.17717564       0.00000000
Si      -0.72601272       2.31681267       0.42960108       0.00000000
Si      -1.98964431      -1.70139276      -0.70839317       0.00000000
Si      -1.40618538       1.87419708       2.63580560       0.00000000
Si       0.53247123      -3.49622496       0.00525958       0.00000000
Si       1.59547422      -2.87889912      -2.06711786       0.00000000
Si      -2.90369250       0.06209748       2.75870100       0.00000000
Si       2.44432169       3.17275443      -0.53383013       0.00000000
