10
Lattice="16.28999089631971 0.0 0.0 0.0 16.28999089631971 0.0 0.0 0.0 34.376317263855086" Properties=species:S:1:pos:R:3:initial_magmoms:R:1 pbc="T T T"
Si       1.34858394       1.35143469       1.36160887       0.00000000
Si      -1.38290697       1.26873036      -1.41266117       0.00000000
Si      -1.36648665      -1.36239786       1.35610866       0.00000000
Si       1.39061214      -1.35940050      -1.36608124       0.00000000
Si      -2.11367637      -0.81370179      -2.53234898       0.00000000
Si       2.69338860       2.71502172      -0.02847048       0.00000000
Si       2.70492192      -0.00511506       2.71926791       0.00000000
Si      -0.00908982       2.70839169       2.71878664       0.00000000
Si       2.70143586      -2.73253347       0.00123411       0.00000000
Si      -2.73328281       2.70282051      -0.02103144       0.00000000
