10
Lattice="16.28999089631971 0.0 0.0 0.0 16.28999089631971 0.0 0.0 0.0 34.376317263855086" Properties=species:S:1:pos:R:3:initial_magmoms:R:1 pbc="T T T"
Si      -1.14464943       1.45321461      -1.57151422       0.00000000
Si      -1.32063030      -1.49449347       1.41888329       0.00000000
Si       0.27471456       1.17413433       2.13827688       0.00000000
Si       1.84621086      -1.28992365      -1.27347138       0.00000000
Si      -1.96823925      -0.27911286      -2.91937600       0.00000000
Si       1.46865753      -0.55079748       3.18441755       0.00000000
Si       0.74025018       2.36356497      -2.77403285       0.00000000
Si      -1.72680516      -3.31925040       0.07277470       0.00000000
Si       0.12658959      -2.47287087       2.95409610       0.00000000
Si      -3.04859205      -1.95362712      -1.61561906       0.00000000
