10
Lattice="16.28999089631971 0.0 0.0 0.0 16.28999089631971 0.0 0.0 0.0 34.376317263855086" Properties=species:S:1:pos:R:3:initial_magmoms:R:1 pbc="T T T"
Si       1.95021274      -1.20809898      -0.48398444       0.00000000
Si       0.08871534       1.44060615       1.85377832       0.00000000
Si      -0.78894166       1.28762676      -1.80252320       0.00000000
Si      -1.42746079      -1.83326031       0.55682790       0.00000000
Si      -2.75182150       1.83920616      -0.65005652       0.00000000
Si      -0.91214293      -0.08623926       3.33474527       0.00000000
Si      -1.98363397       2.58271434       1.46199121       0.00000000
Si       1.23289888      -3.44385261      -0.69172064       0.00000000
Si       0.35609288       3.36406419      -1.64030127       0.00000000
Si      -2.87701015      -2.08212264      -1.31197288       0.00000000
