10
Lattice="16.28999089631971 0.0 0.0 0.0 16.28999089631971 0.0 0.0 0.0 34.376317263855086" Properties=species:S:1:pos:R:3:initial_magmoms:R:1 pbc="T T T"
Si       1.53976338       1.40934564      -1.04971581       0.00000000
Si      -1.15528680      -0.99875619      -1.77405960       0.00000000
Si       0.91769715      -1.74073311       1.27800906       0.00000000
Si      -1.62220707       1.27697310       1.19715592       0.00000000
Si      -3.21390297      -0.68551578       1.40327643       0.00000000
Si      -2.91874446      -2.02362525      -0.62217731       0.00000000
Si       1.53639135      -3.19226985      -0.69924906       0.00000000
Si      -1.63650969       0.84235590      -3.18802707       0.00000000
Si       3.10873377      -0.08485461      -2.05793938       0.00000000
Si       0.37939410       2.21109057      -3.00184483       0.00000000
