10
Lattice="16.28999089631971 0.0 0.0 0.0 16.28999089631971 0.0 0.0 0.0 34.376317263855086" Properties=species:S:1:pos:R:3:initial_magmoms:R:1 pbc="T T T"
Si       1.35531171      -1.35218403       1.35982474       0.00000000
Si      -1.35705474      -1.35527913      -1.35652461       0.00000000
Si       1.35749457       1.35965984      -1.35614647       0.00000000
Si      -1.35459495       1.36003581       1.36250610       0.00000000
Si       0.00068418      -2.71357191      -2.71335861       0.00000000
Si       2.71423980      -2.71371852       0.00089378       0.00000000
Si      -2.71482624       0.00224802      -2.71366800       0.00000000
Si      -2.71494027      -2.71386513       0.00171882       0.00000000
Si       2.71546155       0.00188964      -2.71394301       0.00000000
Si       2.71497285       2.71484483       0.00140943       0.00000000
