10
Lattice="16.28999089631971 0.0 0.0 0.0 16.28999089631971 0.0 0.0 0.0 34.376317263855086" Properties=species:S:1:pos:R:3:initial_magmoms:R:1 pbc="T T T"
Si      -1.35689184      -1.35694071      -1.35724652       0.00000000
Si       1.35909122       1.35811359      -1.35690275       0.00000000
Si       1.36127385      -1.35562122       1.35999662       0.00000000
Si      -1.35892809       1.36153449       1.35893096       0.00000000
Si      -2.71355562       0.00014661      -2.71425240       0.00000000
Si      -2.71423980       2.71371852      -0.00089378       0.00000000
Si       0.00104256      -2.71422351      -2.71438990       0.00000000
Si       2.71409223       2.71476108      -0.00017188       0.00000000
Si       2.71305782      -2.71590138       0.00034376       0.00000000
Si      -2.71445157      -2.71526607       0.00013751       0.00000000
