10
Lattice="16.28999089631971 0.0 0.0 0.0 16.28999089631971 0.0 0.0 0.0 34.376317263855086" Properties=species:S:1:pos:R:3:initial_magmoms:R:1 pbc="T T T"
Si       0.62377668       0.76714497       2.16797804       0.00000000
Si       1.97592717      -0.78705135      -1.14318507       0.00000000
Si      -0.55855152       2.08350959      -1.16243582       0.00000000
Si      -2.08630917      -1.56002814       0.23032145       0.00000000
Si      -1.91738187       0.92298637      -2.61456102       0.00000000
Si       0.73358757      -1.96240743      -2.67832913       0.00000000
Si       1.48098159       2.82883085       1.43541831       0.00000000
Si      -0.57045951      -3.33112581      -1.08237333       0.00000000
Si       2.57882822      -2.68273494       0.15349034       0.00000000
Si      -3.55343544      -0.30745746      -1.29719106       0.00000000
