10
Lattice="16.28999089631971 0.0 0.0 0.0 16.28999089631971 0.0 0.0 0.0 34.376317263855086" Properties=species:S:1:pos:R:3:initial_magmoms:R:1 pbc="T T T"
Si      -1.42982217      -0.04727358       1.88444201       0.00000000
Si       0.25260903      -2.33768016      -0.31189650       0.00000000
Si      -1.32758613       1.37625969      -1.47859498       0.00000000
Si       2.24354255       0.88611803       0.40588140       0.00000000
Si       0.43368867      -0.32164605       3.35987437       0.00000000
Si      -2.93345433       1.76433147       1.63236034       0.00000000
Si       1.41297831      -3.13942509       1.64023252       0.00000000
Si       2.51078652      -1.22427495       2.67509775       0.00000000
Si       3.04703377       1.72747372      -1.64686715       0.00000000
Si      -2.42297460       3.06254348      -0.25019098       0.00000000
