10
Lattice="16.28999089631971 0.0 0.0 0.0 16.28999089631971 0.0 0.0 0.0 34.376317263855086" Properties=species:S:1:pos:R:3:initial_magmoms:R:1 pbc="T T T"
Si       1.05875226       1.50144930      -1.42287923       0.00000000
Si      -1.27391058       1.38518757       1.36344801       0.00000000
Si       1.45474587      -1.35715248       1.34360255       0.00000000
Si      -1.81348425      -0.80575227      -1.44453632       0.00000000
Si       1.36340784      -0.04725729      -3.10934792       0.00000000
Si      -2.58859666      -2.64254751      -0.06898987       0.00000000
Si      -2.61800988       0.00534312       2.72835357       0.00000000
Si      -2.62400297       2.80163565      -0.15641921       0.00000000
Si       2.72031597       2.71793763      -0.19884304       0.00000000
Si       0.09656712      -2.71559187       2.72965987       0.00000000
