10
Lattice="16.28999089631971 0.0 0.0 0.0 16.28999089631971 0.0 0.0 0.0 34.376317263855086" Properties=species:S:1:pos:R:3:initial_magmoms:R:1 pbc="T T T"
Si      -1.35387186      -1.35641943      -1.35769341       0.00000000
Si      -1.35178397       1.36028016       1.35965286       0.00000000
Si       1.36039419       1.35889551      -1.35745277       0.00000000
Si       1.36093176      -1.35334062       1.36288424       0.00000000
Si      -2.71201526       0.00167787      -2.71473367       0.00000000
Si      -2.71214558      -2.71480995      -0.00044689       0.00000000
Si       0.00306415      -2.71345788      -2.71497430       0.00000000
Si      -2.71305782       2.71590138      -0.00034376       0.00000000
Si       0.00322216       2.71643895      -2.71490555       0.00000000
Si       2.71692765       2.71490769       0.00006875       0.00000000
