10
Lattice="16.28999089631971 0.0 0.0 0.0 16.28999089631971 0.0 0.0 0.0 34.376317263855086" Properties=species:S:1:pos:R:3:initial_magmoms:R:1 pbc="T T T"
Si       1.30870602      -1.23411411      -1.46786957       0.00000000
Si       0.90720639       1.54543230       1.49464873       0.00000000
Si      -1.13248080      -1.73763801       1.25573320       0.00000000
Si      -1.42012473       1.46955348      -1.45501282       0.00000000
Si      -1.13006988       1.93482846       2.72528720       0.00000000
Si      -2.29584581      -0.17159886       2.72071515       0.00000000
Si       2.48311728      -2.72015307       0.03080120       0.00000000
Si       2.46570327       2.82960558       0.02684792       0.00000000
Si      -0.06674013      -2.58149259      -2.82851934       0.00000000
Si       2.64942189       0.13014081      -2.83212886       0.00000000
