10
Lattice="16.28999089631971 0.0 0.0 0.0 16.28999089631971 0.0 0.0 0.0 34.376317263855086" Properties=species:S:1:pos:R:3:initial_magmoms:R:1 pbc="T T T"
Si      -1.24233960      -1.17535608      -1.53514406       0.00000000
Si       0.60290105      -1.89568359       1.29667541       0.00000000
Si      -1.97592717       0.78705135       1.14318507       0.00000000
Si       1.55466058       1.55949057      -1.40798599       0.00000000
Si       2.64017731      -2.28507975       0.06603694       0.00000000
Si      -2.54638668      -2.54407446       0.06081174       0.00000000
Si       0.31284619      -2.36095857      -2.88362461       0.00000000
Si      -2.42320170       0.37524015      -2.88764664       0.00000000
Si      -2.53447869       2.87056094      -0.01925075       0.00000000
Si      -1.35215049       1.55419632       3.31116311       0.00000000
