10
Lattice="16.28999089631971 0.0 0.0 0.0 16.28999089631971 0.0 0.0 0.0 34.376317263855086" Properties=species:S:1:pos:R:3:initial_magmoms:R:1 pbc="T T T"
Si       1.35443205      -1.35924249      -1.36157794       0.00000000
Si      -1.36026224       1.35718506      -1.36161231       0.00000000
Si       1.35003375       1.36677987       1.37859422       0.00000000
Si      -1.36540499      -1.38168033       1.37154707       0.00000000
Si      -0.23353344       2.56924251       2.81982213       0.00000000
Si       2.62594800      -0.07970697       2.78152689       0.00000000
Si      -2.71331846      -2.71367392      -0.00316262       0.00000000
Si      -2.71282976       2.71559187      -0.00587835       0.00000000
Si       2.71417464       2.71567332      -0.00261260       0.00000000
Si       2.71697652      -2.71341702       0.00085941       0.00000000
