10
Lattice="16.28999089631971 0.0 0.0 0.0 16.28999089631971 0.0 0.0 0.0 34.376317263855086" Properties=species:S:1:pos:R:3:initial_magmoms:R:1 pbc="T T T"
Si      -0.45124929       2.27450754      -0.47844985       0.00000000
Si       1.81262577      -0.76683546       1.32070447       0.00000000
Si      -2.10080957      -0.88062111       0.69759900       0.00000000
Si       0.60447792      -0.84729177      -2.15625571       0.00000000
Si      -2.13617516       1.59405795      -2.05573930       0.00000000
Si      -0.30430697       0.89865414      -3.45633437       0.00000000
Si      -1.39264578      -3.10866957       1.34803366       0.00000000
Si      -3.52897016      -0.01296684      -1.06521954       0.00000000
Si       2.23313583      -2.99664324       0.54974637       0.00000000
Si       1.12820142      -0.74098323       3.54045327       0.00000000
