10
Lattice="16.28999089631971 0.0 0.0 0.0 16.28999089631971 0.0 0.0 0.0 34.433804113860816" Properties=species:S:1:pos:R:3:initial_magmoms:R:1 pbc="T T T"
Si       1.35529542      -1.35533733       1.36199545       0.00000000
Si      -1.36071999       1.36156381       1.36154781       0.00000000
Si      -1.37319813      -1.36480293      -1.36279087       0.00000000
Si       1.38486177       1.35193642      -1.37579653       0.00000000
Si       2.70873378      -2.70610524       0.00657686       0.00000000
Si      -2.71627116      -2.70797859       0.00423536       0.00000000
Si       2.71440270       2.71021291       0.00316791       0.00000000
Si      -0.00319284      -2.71100853       2.71920460       0.00000000
Si       2.71256193       0.00384444       2.71830932       0.00000000
Si      -2.71718666       2.71775518      -0.00213490       0.00000000
