10
Lattice="16.28999089631971 0.0 0.0 0.0 16.28999089631971 0.0 0.0 0.0 34.433804113860816" Properties=species:S:1:pos:R:3:initial_magmoms:R:1 pbc="T T T"
Si       1.14505668       0.22808769      -2.06330913       0.00000000
Si      -1.74806361       1.21995647      -1.05412263       0.00000000
Si       0.04197933       1.28294013       2.03421255       0.00000000
Si      -0.99882135      -2.18603559      -0.24065799       0.00000000
Si      -2.45532654      -1.54782597       1.48616382       0.00000000
Si      -2.22420402      -0.64545771      -2.47455228       0.00000000
Si      -1.49507991      -0.17527128       3.17149287       0.00000000
Si      -0.73233324       2.97628888      -2.29983506       0.00000000
Si       2.89742085      -1.31970081      -2.23000327       0.00000000
Si      -0.24110829      -0.42798621      -3.94873313       0.00000000
