10
Lattice="16.28999089631971 0.0 0.0 0.0 16.28999089631971 0.0 0.0 0.0 34.433804113860816" Properties=species:S:1:pos:R:3:initial_magmoms:R:1 pbc="T T T"
Si      -0.71205219      -0.96668444       2.00311881       0.00000000
Si       1.81706805      -1.05507072      -1.05160897       0.00000000
Si      -2.02222431      -0.15881447      -1.29357544       0.00000000
Si       0.79359993       2.26419597       0.24089903       0.00000000
Si      -2.39166522       2.20760451      -1.08638713       0.00000000
Si      -0.19842849       2.92099248      -1.79217720       0.00000000
Si      -2.02422798       0.86086134       2.79151563       0.00000000
Si       3.16690632       1.88066421       0.52669976       0.00000000
Si       3.71897442      -0.38576675       0.15478004       0.00000000
Si      -2.41153902      -2.53184786       1.68980545       0.00000000
