10
Lattice="16.28999089631971 0.0 0.0 0.0 16.28999089631971 0.0 0.0 0.0 34.433804113860816" Properties=species:S:1:pos:R:3:initial_magmoms:R:1 pbc="T T T"
Si      -0.68051475      -2.19609562      -0.37484660       0.00000000
Si       1.10198592      -0.02818170       2.09113166       0.00000000
Si      -1.97905581       1.32493086      -0.32636378       0.00000000
Si       1.98306315       0.83940741      -1.17501979       0.00000000
Si       1.30829877       2.31692670       1.92126961       0.00000000
Si       1.95572853       3.02456430      -0.26858382       0.00000000
Si       2.99118609      -1.40542138       1.53061788       0.00000000
Si      -2.31529770      -1.95279959      -2.04760731       0.00000000
Si       1.14619698      -3.56930909      -0.72190511       0.00000000
Si      -1.50131898       2.84403852      -2.05917707       0.00000000
