10
Lattice="16.28999089631971 0.0 0.0 0.0 16.28999089631971 0.0 0.0 0.0 34.433804113860816" Properties=species:S:1:pos:R:3:initial_magmoms:R:1 pbc="T T T"
Si      -1.26811134       1.43672913       1.33514395       0.00000000
Si       1.47611835      -1.29446856       1.31672874       0.00000000
Si      -1.13404464      -1.42930089      -1.57166097       0.00000000
Si       0.79662987       1.63372410      -1.58770713       0.00000000
Si       0.54190314      -0.35416089      -2.97904020       0.00000000
Si      -2.51107092      -2.60985348      -0.02542938       0.00000000
Si      -2.61669528       0.07555302       2.69649549       0.00000000
Si       0.10526598      -2.65313601       2.69615115       0.00000000
Si       2.69840592       2.66142762      -0.17625297       0.00000000
Si       0.10505421       2.78511759       2.69529031       0.00000000
