10
Lattice="16.28999089631971 0.0 0.0 0.0 16.28999089631971 0.0 0.0 0.0 34.433804113860816" Properties=species:S:1:pos:R:3:initial_magmoms:R:1 pbc="T T T"
Si      -1.35863487      -1.35107631      -1.37797274       0.00000000
Si       1.36086660       1.36449927      -1.37890246       0.00000000
Si      -1.35495333       1.42149798       1.44043570       0.00000000
Si       1.33400439      -1.39284387       1.48891852       0.00000000
Si      -0.51168519      -0.34780779       3.76640603       0.00000000
Si      -2.69693982      -2.70208746       0.00347782       0.00000000
Si       2.71231758      -2.69355150      -0.01218957       0.00000000
Si       2.71645524       2.70213633      -0.02172774       0.00000000
Si      -2.70630657       2.72756502      -0.02186548       0.00000000
Si       0.00074934      -2.70775638      -2.73652481       0.00000000
