10
Lattice="16.28999089631971 0.0 0.0 0.0 16.28999089631971 0.0 0.0 0.0 34.433804113860816" Properties=species:S:1:pos:R:3:initial_magmoms:R:1 pbc="T T T"
Si      -0.47773683      -1.51910766       1.73281329       0.00000000
Si       1.89907191       1.34930070       0.42085019       0.00000000
Si      -1.75352076       1.60780671      -0.31255581       0.00000000
Si       0.69167340      -1.56595770      -1.75065001       0.00000000
Si      -2.12615451      -2.96929233       0.79996658       0.00000000
Si      -1.24789545       2.71054197      -2.35985322       0.00000000
Si       1.50131898      -2.84403852       2.05917707       0.00000000
Si      -3.82787307       0.45100494       0.01797446       0.00000000
Si      -3.39027480      -1.69725510      -0.80575147       0.00000000
Si       3.45704751       0.18052578       1.79059325       0.00000000
