10
Lattice="16.28999089631971 0.0 0.0 0.0 16.28999089631971 0.0 0.0 0.0 34.433804113860816" Properties=species:S:1:pos:R:3:initial_magmoms:R:1 pbc="T T T"
Si      -0.65847438       1.02314232       2.00098391       0.00000000
Si       0.47773683       1.51910766      -1.73281329       0.00000000
Si      -1.64841768      -1.45018467      -0.93284671       0.00000000
Si       1.97905581      -1.32493086       0.32636378       0.00000000
Si       1.16941023      -0.04685004      -3.48346331       0.00000000
Si      -0.33624189      -3.27773045      -1.72124353       0.00000000
Si       1.26244242       2.08459872       2.81272686       0.00000000
Si       1.29854106      -3.52102648      -0.04848282       0.00000000
Si      -1.09827180      -0.69895503       3.52760747       0.00000000
Si      -2.80756521      -2.52072274       0.83236881       0.00000000
