10
Lattice="16.28999089631971 0.0 0.0 0.0 16.28999089631971 0.0 0.0 0.0 34.433804113860816" Properties=species:S:1:pos:R:3:initial_magmoms:R:1 pbc="T T T"
Si      -1.35729909       1.35720135      -1.35779452       0.00000000
Si      -1.35711990      -1.35824391       1.35772565       0.00000000
Si       1.35832536      -1.35806472      -1.35776009       0.00000000
Si       1.35938421       1.35785295       1.35765679       0.00000000
Si      -0.00459378       2.71340901       2.71510697       0.00000000
Si      -2.71440270       2.71428867      -0.00061981       0.00000000
Si      -0.00184077       2.71384884      -2.71538244       0.00000000
Si      -2.71474479      -0.00050499      -2.71455603       0.00000000
Si      -2.71466334      -2.71544526      -0.00010330       0.00000000
Si       0.00254124      -2.71360449      -2.71696640       0.00000000
