10
Lattice="16.28999089631971 0.0 0.0 0.0 16.28999089631971 0.0 0.0 0.0 34.433804113860816" Properties=species:S:1:pos:R:3:initial_magmoms:R:1 pbc="T T T"
Si       1.92778141      -0.74959412      -1.05298632       0.00000000
Si      -0.11101309       1.59695757       1.70698793       0.00000000
Si      -0.62006256      -2.09664843       0.89328225       0.00000000
Si      -0.98069125       1.23764904      -1.83859400       0.00000000
Si      -2.43809239       2.06216739       1.45717054       0.00000000
Si       1.71948118       2.95327926       1.10653091       0.00000000
Si      -2.94876760       1.96890714      -0.81143305       0.00000000
Si      -1.96731139      -3.03584417      -0.72224944       0.00000000
Si      -1.67902726      -0.43831503      -3.37627081       0.00000000
Si      -1.68855691      -1.75968490       2.96654275       0.00000000
