10
Lattice="16.28999089631971 0.0 0.0 0.0 16.28999089631971 0.0 0.0 0.0 34.433804113860816" Properties=species:S:1:pos:R:3:initial_magmoms:R:1 pbc="T T T"
Si       1.34522820       1.34983827      -1.35707141       0.00000000
Si      -1.23523812       1.40568039       1.42710981       0.00000000
Si      -1.36357074      -1.36301688      -1.35421340       0.00000000
Si       1.35135324      -1.30606704       1.46230118       0.00000000
Si      -0.57748050      -2.00401209       2.69072782       0.00000000
Si      -2.44649736      -0.41350536       2.50082529       0.00000000
Si       2.28848436       0.61411671       2.79602646       0.00000000
Si      -2.70526401       2.70257616       0.01280938       0.00000000
Si      -0.00643455       2.70855459      -2.71448716       0.00000000
Si       2.70920619      -0.00571779      -2.71452160       0.00000000
