10
Lattice="16.28999089631971 0.0 0.0 0.0 16.28999089631971 0.0 0.0 0.0 34.433804113860816" Properties=species:S:1:pos:R:3:initial_magmoms:R:1 pbc="T T T"
Si       1.35698958      -1.35731538      -1.35734688       0.00000000
Si      -1.35674523      -1.35716877       1.35827660       0.00000000
Si      -1.35775521       1.35770634      -1.35741575       0.00000000
Si       1.35640314       1.35772263       1.36003272       0.00000000
Si       0.00073305       2.71337754      -2.71462490       0.00000000
Si      -2.71272483      -0.00506619       2.71634659       0.00000000
Si      -2.71619460      -0.00239463      -2.71345415       0.00000000
Si       2.71487511       0.00074934      -2.71500367       0.00000000
Si      -2.71489140      -2.71500543      -0.00003443       0.00000000
Si      -0.00232947      -2.71544526      -2.71479707       0.00000000
