10
Lattice="16.28999089631971 0.0 0.0 0.0 16.28999089631971 0.0 0.0 0.0 34.433804113860816" Properties=species:S:1:pos:R:3:initial_magmoms:R:1 pbc="T T T"
Si       1.04759361       1.49174046       1.45296961       0.00000000
Si       0.94097556      -2.09499174       0.61512582       0.00000000
Si      -1.99387971      -0.80534502       1.02547369       0.00000000
Si       0.12155598       0.13346397      -2.38585075       0.00000000
Si      -3.08726451      -0.95228082      -1.04978397       0.00000000
Si      -1.50850287      -1.55176911      -2.72784749       0.00000000
Si      -0.96743052      -2.84276790       1.86469484       0.00000000
Si       3.30874335       0.86377725       1.22756580       0.00000000
Si       2.95417521      -1.44233289       1.62772126       0.00000000
Si       0.80022996       0.59155506       3.74443725       0.00000000
