10
Lattice="16.28999089631971 0.0 0.0 0.0 16.28999089631971 0.0 0.0 0.0 34.433804113860816" Properties=species:S:1:pos:R:3:initial_magmoms:R:1 pbc="T T T"
Si      -2.32670070       0.67138813       0.12440940       0.00000000
Si       1.01302623       0.37882395      -2.17907564       0.00000000
Si       0.41756157       1.87191878       1.58240433       0.00000000
Si       1.19944899      -2.19390462       0.44676571       0.00000000
Si      -2.68237656      -1.04832666       1.76072677       0.00000000
Si       2.79399564      -1.00466946       1.80980874       0.00000000
Si       1.49284818       0.41076467       3.16421842       0.00000000
Si       2.44038861       2.60740088       0.42660064       0.00000000
Si       1.61525124       2.66980787      -1.81480023       0.00000000
Si      -3.14191746       0.77932242      -2.15428329       0.00000000
