10
Lattice="16.28999089631971 0.0 0.0 0.0 16.28999089631971 0.0 0.0 0.0 34.433804113860816" Properties=species:S:1:pos:R:3:initial_magmoms:R:1 pbc="T T T"
Si       1.35725022      -1.35702406      -1.35800113       0.00000000
Si      -1.35707103       1.35706329      -1.35834546       0.00000000
Si       1.35742941       1.35625693       1.35882754       0.00000000
Si      -1.35866745      -1.35777340       1.35999829       0.00000000
Si       0.00079821       2.71541797      -2.71328198       0.00000000
Si      -2.71433754      -0.00211849      -2.71465933       0.00000000
Si       2.71523349       0.00099771      -2.71417726       0.00000000
Si       2.71485882       2.71471750      -0.00024104       0.00000000
Si      -0.00019548      -2.71474669      -2.71503810       0.00000000
Si      -2.71586880       2.71435912      -0.00030990       0.00000000
