10
Lattice="16.28999089631971 0.0 0.0 0.0 16.28999089631971 0.0 0.0 0.0 34.433804113860816" Properties=species:S:1:pos:R:3:initial_magmoms:R:1 pbc="T T T"
Si      -1.35681039       1.35671265      -1.35710585       0.00000000
Si       1.35755973      -1.35697492      -1.35672707       0.00000000
Si      -1.35742941      -1.35846057       1.35906857       0.00000000
Si       1.35839052       1.35925389       1.35813886       0.00000000
Si      -2.71406061       0.00070047      -2.71304094       0.00000000
Si       0.00037467      -2.71371979      -2.71393622       0.00000000
Si       2.71458189       0.00061902      -2.71421169       0.00000000
Si      -2.71458189       2.71467963       0.00024104       0.00000000
Si      -2.71485882      -2.71471750       0.00024104       0.00000000
Si      -0.00096111       2.71454931      -2.71538244       0.00000000
