10
Lattice="16.28999089631971 0.0 0.0 0.0 16.28999089631971 0.0 0.0 0.0 34.433804113860816" Properties=species:S:1:pos:R:3:initial_magmoms:R:1 pbc="T T T"
Si       0.02581639      -2.30624535       0.26658666       0.00000000
Si       2.24157893       0.70424928       0.52318751       0.00000000
Si      -0.32113454       0.69610428      -2.28454644       0.00000000
Si      -2.27561267       0.38478609       0.77445112       0.00000000
Si      -1.89867836      -2.66053819      -1.02499162       0.00000000
Si      -3.27146924      -0.70332075      -1.15549581       0.00000000
Si       1.80398066       2.85250932       1.34691343       0.00000000
Si       3.13826198       0.77895522      -1.74899719       0.00000000
Si      -0.13455540       3.67386741       0.23676697       0.00000000
Si      -2.23327496       2.75711508       1.00708603       0.00000000
