10
Lattice="16.28999089631971 0.0 0.0 0.0 16.28999089631971 0.0 0.0 0.0 34.433804113860816" Properties=species:S:1:pos:R:3:initial_magmoms:R:1 pbc="T T T"
Si      -0.18062352       2.02613391       1.08394233       0.00000000
Si       1.04997195      -1.29789272       1.61381000       0.00000000
Si       1.46895075       0.20686671      -1.83432420       0.00000000
Si      -2.25795690      -0.66324735      -0.34106702       0.00000000
Si      -0.79071660      -1.11133964       3.05579522       0.00000000
Si      -1.83177792      -2.06958423      -2.22153255       0.00000000
Si       0.90288954      -3.55108058       0.59973390       0.00000000
Si      -2.69262297      -1.78064361       1.84940622       0.00000000
Si       3.09148362       1.77113025      -1.23934217       0.00000000
Si       2.97890343      -0.00024435       2.40812944       0.00000000
