10
Lattice="16.28999089631971 0.0 0.0 0.0 16.28999089631971 0.0 0.0 0.0 34.433804113860816" Properties=species:S:1:pos:R:3:initial_magmoms:R:1 pbc="T T T"
Si       0.20631285       2.34510840      -0.16986205       0.00000000
Si      -1.10198592       0.02818170      -2.09113166       0.00000000
Si      -0.98357391      -0.45131445       2.10786650       0.00000000
Si       1.88920017      -1.37723968      -0.56051378       0.00000000
Si       0.88107723       0.86758911      -3.26615145       0.00000000
Si      -1.58579892      -2.74229837       1.74359108       0.00000000
Si      -1.78250067      -2.16791392      -2.46597826       0.00000000
Si       2.01142404       2.95702596       1.26155199       0.00000000
Si       2.63896371      -0.68849685      -2.71465933       0.00000000
Si      -2.59656084       1.14736986       2.66807037       0.00000000
