10
Lattice="16.28999089631971 0.0 0.0 0.0 16.28999089631971 0.0 0.0 0.0 34.433804113860816" Properties=species:S:1:pos:R:3:initial_magmoms:R:1 pbc="T T T"
Si      -0.75905699       2.20348314      -0.29943653       0.00000000
Si       1.97356934      -0.88589092      -0.99183185       0.00000000
Si      -1.83329682      -1.18948277      -0.97578569       0.00000000
Si       0.22214999      -0.47504898       2.33822878       0.00000000
Si      -1.90699278      -1.47221364       2.68907500       0.00000000
Si      -0.65991767      -2.57245883      -2.48588101       0.00000000
Si       1.66738250       1.37671677       2.93148912       0.00000000
Si       2.12143367      -2.06008064       2.36167821       0.00000000
Si       3.52649504      -1.17283765       0.72903291       0.00000000
Si      -0.83656318       3.23232696       1.78942250       0.00000000
