10
Lattice="16.28999089631971 0.0 0.0 0.0 16.28999089631971 0.0 0.0 0.0 34.433804113860816" Properties=species:S:1:pos:R:3:initial_magmoms:R:1 pbc="T T T"
Si       1.74706992       1.00093905      -1.19922677       0.00000000
Si       1.79678700       0.34824762       1.54921215       0.00000000
Si      -1.74970890       1.63163898       0.40470073       0.00000000
Si      -0.87273675      -2.16189477       0.78020157       0.00000000
Si      -0.54677385       2.21934960      -1.74617362       0.00000000
Si      -1.69590303       1.08882360       2.69393017       0.00000000
Si       0.54621999       1.66975758       2.99577707       0.00000000
Si      -1.89912078      -1.24585920       2.82980604       0.00000000
Si      -1.96009425       0.50181345      -3.28670844       0.00000000
Si      -2.12644773      -2.97357660      -1.25246146       0.00000000
