10
Lattice="16.28999089631971 0.0 0.0 0.0 16.28999089631971 0.0 0.0 0.0 34.433804113860816" Properties=species:S:1:pos:R:3:initial_magmoms:R:1 pbc="T T T"
Si      -1.04791941       0.27425844      -2.08197226       0.00000000
Si       1.94370651       1.31753520       0.30346529       0.00000000
Si      -1.29383325      -0.38289645       1.95663314       0.00000000
Si       1.44940275      -1.87284501      -0.21321423       0.00000000
Si       3.41573607      -0.51935778       0.04338662       0.00000000
Si       0.26414235      -1.55167137       3.32637620       0.00000000
Si      -0.12792537      -3.68168661       0.07093368       0.00000000
Si       0.20264760      -1.04725152      -3.52853718       0.00000000
Si       1.03423581      -2.81064402      -2.27283894       0.00000000
Si       1.98309573       1.99497114       2.52238086       0.00000000
