10
Lattice="16.28999089631971 0.0 0.0 0.0 16.28999089631971 0.0 0.0 0.0 34.433804113860816" Properties=species:S:1:pos:R:3:initial_magmoms:R:1 pbc="T T T"
Si      -1.35703845       1.35689184      -1.35741575       0.00000000
Si       1.35713619       1.35628911       1.35820773       0.00000000
Si       1.35786924      -1.35778779      -1.35769122       0.00000000
Si      -1.35765747      -1.35826020       1.35762235       0.00000000
Si      -2.71288773       0.00078192       2.71555461       0.00000000
Si      -2.71401174       2.71482624      -0.00020660       0.00000000
Si      -0.00351864      -2.71454931       2.71441830       0.00000000
Si      -2.71453302      -0.00131949      -2.71510697       0.00000000
Si       0.00000000       2.71485882      -2.71490037       0.00000000
Si      -2.71440270      -2.71552671      -0.00013774       0.00000000
