10
Lattice="16.28999089631971 0.0 0.0 0.0 16.28999089631971 0.0 0.0 0.0 34.433804113860816" Properties=species:S:1:pos:R:3:initial_magmoms:R:1 pbc="T T T"
Si       0.62534052      -1.52990793      -1.63843018       0.00000000
Si       2.01319965       0.65265885       1.01259544       0.00000000
Si      -0.94097556       2.09499174      -0.61512582       0.00000000
Si      -1.90840608      -0.74777616       1.24956902       0.00000000
Si      -2.93485527       1.28964672       0.41034787       0.00000000
Si       0.32153202      -3.52693161      -0.44109728       0.00000000
Si       0.10661805       3.58673220       0.83784379       0.00000000
Si       1.50464214       0.98802108       3.26918162       0.00000000
Si       2.99690388      -1.49100741      -1.80584743       0.00000000
Si       3.71990295      -0.79403976       0.37133435       0.00000000
