10
Lattice="16.28999089631971 0.0 0.0 0.0 16.28999089631971 0.0 0.0 0.0 34.433804113860816" Properties=species:S:1:pos:R:3:initial_magmoms:R:1 pbc="T T T"
Si      -1.30114746       1.41543413       1.35440968       0.00000000
Si       1.42083009      -1.31289255       1.34953729       0.00000000
Si       1.14764679       1.66390200      -1.22973892       0.00000000
Si      -1.59454665      -1.18923516      -1.36304303       0.00000000
Si      -2.79399564       1.00466946      -1.80980874       0.00000000
Si      -2.37643407       2.87658824      -0.22740441       0.00000000
Si      -2.64994317       0.05023836       2.71970044       0.00000000
Si       0.06866235      -2.66895360       2.71391556       0.00000000
Si       2.77796628      -2.61684189      -0.10920343       0.00000000
Si       0.06401970       2.76127459       2.71914950       0.00000000
