10
Lattice="16.28999089631971 0.0 0.0 0.0 16.28999089631971 0.0 0.0 0.0 34.433804113860816" Properties=species:S:1:pos:R:3:initial_magmoms:R:1 pbc="T T T"
Si      -1.39452174       1.19552017      -1.58922425       0.00000000
Si       0.94623723       1.94379317       1.16028211       0.00000000
Si      -1.11084768      -1.55569697       1.55823381       0.00000000
Si       1.31214321      -1.49530994      -1.56209040       0.00000000
Si      -1.00287756       3.32935541       1.05701508       0.00000000
Si       2.13042249      -1.52640755       2.62953892       0.00000000
Si      -2.83540482       2.47968530      -0.28752243       0.00000000
Si      -2.56041333      -2.79355778      -0.07206999       0.00000000
Si       2.74437941       2.69987723      -0.19995721       0.00000000
Si      -0.03789054       2.57136542      -2.95108196       0.00000000
