10
Lattice="16.28999089631971 0.0 0.0 0.0 16.28999089631971 0.0 0.0 0.0 34.433804113860816" Properties=species:S:1:pos:R:3:initial_magmoms:R:1 pbc="T T T"
Si       1.79814218       0.75608406      -1.36023932       0.00000000
Si      -1.94911479       1.38556224      -0.10326704       0.00000000
Si       0.84263283      -0.23056866       2.23461740       0.00000000
Si      -0.94623723      -1.94379317      -1.16028211       0.00000000
Si       2.57311694      -1.56269155       1.41206223       0.00000000
Si       0.37636416       2.00332791      -2.76296999       0.00000000
Si      -1.11808044       3.20018679      -1.39818540       0.00000000
Si      -2.34075897      -0.74827300      -2.74950636       0.00000000
Si      -3.00921912       1.31706279       2.03221539       0.00000000
Si      -0.76118283      -1.29879518       3.57292238       0.00000000
