10
Lattice="16.28999089631971 0.0 0.0 0.0 16.28999089631971 0.0 0.0 0.0 34.433804113860816" Properties=species:S:1:pos:R:3:initial_magmoms:R:1 pbc="T T T"
Si       1.92449475       0.35429284       1.29157828       0.00000000
Si       1.06849435      -0.33696354      -2.07326050       0.00000000
Si      -0.95361660      -1.90874884       1.07884612       0.00000000
Si      -1.37279088       1.95721744      -0.13050419       0.00000000
Si       1.89867836       2.66053819       1.02499162       0.00000000
Si      -3.30172236       0.65956907      -0.92482363       0.00000000
Si      -0.37693431       3.04532428       1.79944274       0.00000000
Si      -0.38928213      -3.55123696      -0.50266495       0.00000000
Si       2.90907539      -1.75769167      -1.47924262       0.00000000
Si       1.68855691       1.75968490      -2.96654275       0.00000000
