10
Lattice="16.28999089631971 0.0 0.0 0.0 16.28999089631971 0.0 0.0 0.0 34.433804113860816" Properties=species:S:1:pos:R:3:initial_magmoms:R:1 pbc="T T T"
Si       1.37279088      -1.95721744       0.13050419       0.00000000
Si       0.62325540       1.86463485      -1.37886802       0.00000000
Si       0.99585657       1.08810684       1.92994693       0.00000000
Si      -1.92893148      -1.29764837      -0.79431944       0.00000000
Si       2.95033470       1.39942503      -1.12905063       0.00000000
Si       3.27146924       0.70332075       1.15549581       0.00000000
Si      -2.97890343       0.00024435      -2.40812944       0.00000000
Si       2.44128523      -2.29418097      -1.94275631       0.00000000
Si       3.29728563      -1.60292460       1.42208247       0.00000000
Si       0.20312001       0.16474077       3.95916658       0.00000000
