10
Lattice="16.28999089631971 0.0 0.0 0.0 16.28999089631971 0.0 0.0 0.0 34.433804113860816" Properties=species:S:1:pos:R:3:initial_magmoms:R:1 pbc="T T T"
Si      -0.79273656      -0.92336607       2.02921964       0.00000000
Si       0.04233771       2.37232899       0.23263491       0.00000000
Si      -0.99585657      -1.08810684      -1.92994693       0.00000000
Si       2.27561267      -0.38478609      -0.77445112       0.00000000
Si      -0.37260117       0.77652801      -3.30881495       0.00000000
Si       0.37693431      -3.04532428      -1.79944274       0.00000000
Si      -0.45691821       0.94591143       3.41149662       0.00000000
Si       2.30142906      -2.69103144      -0.50786446       0.00000000
Si       1.95447813       0.31131819      -3.05899757       0.00000000
Si      -1.77388326       3.22955766      -0.93790848       0.00000000
