10
Lattice="16.28999089631971 0.0 0.0 0.0 16.28999089631971 0.0 0.0 0.0 34.433804113860816" Properties=species:S:1:pos:R:3:initial_magmoms:R:1 pbc="T T T"
Si      -1.55450583       0.56272665      -1.69090733       0.00000000
Si       1.10195334       1.86063403       0.99059223       0.00000000
Si      -0.90785799      -1.62875632       1.54962535       0.00000000
Si       1.98096174      -0.85845109      -1.13617844       0.00000000
Si       3.07711584       0.18603343       0.96538667       0.00000000
Si      -2.17111491      -1.76075419      -1.88941832       0.00000000
Si      -2.98030437      -2.22866815       0.34712737       0.00000000
Si       0.64285227       3.78464593      -0.39702198       0.00000000
Si      -2.10088872      -0.52192346       3.37234299       0.00000000
Si      -0.44608536      -3.34841017      -2.28795539       0.00000000
