10
Lattice="16.28999089631971 0.0 0.0 0.0 16.28999089631971 0.0 0.0 0.0 34.433804113860816" Properties=species:S:1:pos:R:3:initial_magmoms:R:1 pbc="T T T"
Si       1.32045111       1.27449702      -1.45971317       0.00000000
Si      -1.90381230      -0.75158802      -1.25782766       0.00000000
Si       1.32878685      -1.36619343       1.49633212       0.00000000
Si      -1.36842516       1.36985868       1.49784033       0.00000000
Si      -0.30820680       1.71507636      -3.20981224       0.00000000
Si       2.64082633       2.68185528       0.05544534       0.00000000
Si      -2.76146451      -2.63054830       0.17466213       0.00000000
Si       2.63317817      -2.84226454       0.04504288       0.00000000
Si      -1.16988264      -1.43123940      -3.44117310       0.00000000
Si      -2.69275329       2.84097600      -0.01067793       0.00000000
