10
Lattice="16.28999089631971 0.0 0.0 0.0 16.28999089631971 0.0 0.0 0.0 34.433804113860816" Properties=species:S:1:pos:R:3:initial_magmoms:R:1 pbc="T T T"
Si       1.46031609      -1.26135099      -1.32573663       0.00000000
Si      -1.25486757       1.47207843      -1.33599791       0.00000000
Si       1.74126158       1.06732080       1.16496511       0.00000000
Si      -1.41320637      -1.41788160       1.42810839       0.00000000
Si       0.68129734       2.20672485       2.85298000       0.00000000
Si      -2.60488503       0.11613141      -2.69203631       0.00000000
Si       0.10965042      -2.60051931      -2.69823440       0.00000000
Si      -2.49766425       2.87788914       0.08470721       0.00000000
Si       2.87628362      -2.52027477       0.15719040       0.00000000
Si      -2.73800691      -2.74297536       0.02310510       0.00000000
