10
Lattice="16.28999089631971 0.0 0.0 0.0 16.28999089631971 0.0 0.0 0.0 34.433804113860816" Properties=species:S:1:pos:R:3:initial_magmoms:R:1 pbc="T T T"
Si      -0.68501079       0.15089427       2.18937136       0.00000000
Si       0.71627130      -2.30213538      -0.18153512       0.00000000
Si       2.02574295       1.12549239      -0.74635312       0.00000000
Si      -1.72587663       0.69449157      -1.59263320       0.00000000
Si      -0.09585036      -0.17023050      -3.09677147       0.00000000
Si       0.20559609      -2.39539563      -2.45013870       0.00000000
Si      -2.65134411      -1.20259296       1.93277051       0.00000000
Si       1.13121018      -0.70633440       3.35991475       0.00000000
Si      -3.06651105      -2.14039197      -0.12685421       0.00000000
Si      -2.15704035       1.98778725       2.44945002       0.00000000
