10
Lattice="16.28999089631971 0.0 0.0 0.0 16.28999089631971 0.0 0.0 0.0 34.433804113860816" Properties=species:S:1:pos:R:3:initial_magmoms:R:1 pbc="T T T"
Si      -0.65508606       0.63737883      -2.15376678       0.00000000
Si       0.99749927      -2.10183354       0.33476563       0.00000000
Si       1.70004625       1.66873131       0.56419820       0.00000000
Si      -2.22762492       0.25666524       1.14347841       0.00000000
Si      -1.18641699      -1.98545778       1.49098455       0.00000000
Si       1.51995215       0.64228212      -2.94378199       0.00000000
Si      -1.76894739       2.80585476      -1.47975912       0.00000000
Si       3.25378808      -1.49952708       0.74766161       0.00000000
Si       2.61958580       2.13529320      -1.53812446       0.00000000
Si       1.07500546      -3.13067736      -1.75409340       0.00000000
