10
Lattice="16.28999089631971 0.0 0.0 0.0 16.28999089631971 0.0 0.0 0.0 34.433804113860816" Properties=species:S:1:pos:R:3:initial_magmoms:R:1 pbc="T T T"
Si      -0.14517648      -2.27191743       0.34940001       0.00000000
Si       1.90690740       0.40301460       1.32642531       0.00000000
Si      -2.13693849       0.74414349       0.85292580       0.00000000
Si      -1.59925446       1.14854274      -1.64566129       0.00000000
Si       1.36083402      -2.28068145      -1.51508823       0.00000000
Si       0.27637614       2.01508929      -2.85848941       0.00000000
Si       0.42555996      -2.40414336       2.63091627       0.00000000
Si       3.45533773       1.34392500      -0.09021662       0.00000000
Si       1.82340486       2.99828853      -1.28500142       0.00000000
Si      -2.47924026      -0.70325559      -2.91564956       0.00000000
