10
Lattice="16.28999089631971 0.0 0.0 0.0 16.28999089631971 0.0 0.0 0.0 34.433804113860816" Properties=species:S:1:pos:R:3:initial_magmoms:R:1 pbc="T T T"
Si       0.33231600      -2.32370334      -0.15443570       0.00000000
Si       1.91282786       1.36420605      -0.15174986       0.00000000
Si      -1.19830869       0.92201400       1.81218326       0.00000000
Si      -0.31610745       0.89052543      -2.18372421       0.00000000
Si      -0.61690230       3.16557054       1.41708957       0.00000000
Si       1.71746677       2.20305960      -2.34239527       0.00000000
Si       0.45458874      -2.65375503      -2.51242949       0.00000000
Si      -3.44372229       0.22820661       1.46836153       0.00000000
Si       1.79427249       3.03156900       1.42752301       0.00000000
Si       2.34542510      -2.85495282       0.99431108       0.00000000
