10
Lattice="16.28999089631971 0.0 0.0 0.0 16.28999089631971 0.0 0.0 0.0 34.433804113860816" Properties=species:S:1:pos:R:3:initial_magmoms:R:1 pbc="T T T"
Si       1.35086454       1.35703260       1.38420527       0.00000000
Si      -1.36568844      -1.35715248       1.38210480       0.00000000
Si      -1.38947184       1.44339241      -1.32612229       0.00000000
Si       1.24595694      -1.43192358      -1.56543736       0.00000000
Si       2.68424048      -2.70405855       0.01326735       0.00000000
Si       2.70077952       2.70774728      -0.00445229       0.00000000
Si      -2.72754873      -2.71665072       0.01906945       0.00000000
Si       2.70774327      -0.00187960       2.74492666       0.00000000
Si      -0.00798210       2.71470311       2.74485780       0.00000000
Si      -0.00614133      -2.71679733       2.74396252       0.00000000
