10
Lattice="16.28999089631971 0.0 0.0 0.0 16.28999089631971 0.0 0.0 0.0 34.433804113860816" Properties=species:S:1:pos:R:3:initial_magmoms:R:1 pbc="T T T"
Si       1.35275418      -1.35469269       1.35579736       0.00000000
Si      -1.35721764      -1.35646830      -1.35776009       0.00000000
Si      -1.35475785       1.36024758       1.35855207       0.00000000
Si       1.35760860       1.35910909      -1.35700254       0.00000000
Si       0.00402363       2.69596146       2.72313005       0.00000000
Si       2.71531494      -2.71130760       0.00120518       0.00000000
Si      -2.71534752      -2.71134018      -0.00285801       0.00000000
Si       0.00045612      -2.71340901      -2.71462490       0.00000000
Si       2.71422351       2.71429423       0.00027547       0.00000000
Si       2.71521720       0.00177561      -2.71452160       0.00000000
