10
Lattice="16.28999089631971 0.0 0.0 0.0 16.28999089631971 0.0 0.0 0.0 34.433804113860816" Properties=species:S:1:pos:R:3:initial_magmoms:R:1 pbc="T T T"
Si       1.35773452       1.35496962      -1.35831103       0.00000000
Si      -1.36256076       1.35661491       1.35459218       0.00000000
Si      -1.35713619      -1.35972630      -1.35817329       0.00000000
Si       1.36344042      -1.36208835       1.36010159       0.00000000
Si      -2.68951158       0.00749340       2.72884607       0.00000000
Si      -2.71531494       2.71130760      -0.00120518       0.00000000
Si      -0.00009774       2.71308321      -2.71572678       0.00000000
Si      -2.71485882      -0.00210141      -2.71583008       0.00000000
Si       2.71523905      -0.00213399      -2.71545131       0.00000000
Si       2.71577988       2.71554300       0.00010330       0.00000000
