10
Lattice="16.28999089631971 0.0 0.0 0.0 16.28999089631971 0.0 0.0 0.0 34.433804113860816" Properties=species:S:1:pos:R:3:initial_magmoms:R:1 pbc="T T T"
Si       1.43839790      -1.18418526      -1.40283396       0.00000000
Si       1.36645637       1.38285810       1.31726591       0.00000000
Si      -0.99473256      -1.50649920       1.57841203       0.00000000
Si      -1.29811752       1.54013805      -1.38086518       0.00000000
Si      -0.47983824       1.50904044       2.81076413       0.00000000
Si      -2.54176128      -2.48969844       0.00492404       0.00000000
Si       0.06994926      -2.53838925      -2.76982232       0.00000000
Si       2.90842379      -2.48108103       0.01146646       0.00000000
Si      -2.65605192       0.18031401      -2.77533173       0.00000000
Si      -2.28898935      -0.02990844       3.09873420       0.00000000
