10
Lattice="16.28999089631971 0.0 0.0 0.0 16.28999089631971 0.0 0.0 0.0 34.433804113860816" Properties=species:S:1:pos:R:3:initial_magmoms:R:1 pbc="T T T"
Si       1.35311256      -1.35257499      -1.35913744       0.00000000
Si      -1.35705637      -1.35754344       1.35679594       0.00000000
Si       1.35744570       1.35770634       1.35676151       0.00000000
Si      -1.35403783       1.35856971      -1.36079027       0.00000000
Si      -0.00464265       2.72088612      -2.68731543       0.00000000
Si       2.70169650       0.00860112      -2.72048898       0.00000000
Si       2.71290402       2.71435383      -0.00082641       0.00000000
Si      -2.71442221       0.00016290       2.71366075       0.00000000
Si       0.00034209       2.71479366       2.71393622       0.00000000
Si       2.71474479       0.00050499       2.71455603       0.00000000
