10
Lattice="16.28999089631971 0.0 0.0 0.0 16.28999089631971 0.0 0.0 0.0 34.433804113860816" Properties=species:S:1:pos:R:3:initial_magmoms:R:1 pbc="T T T"
Si       0.30146111      -0.59135958       2.22070614       0.00000000
Si       2.01069914       1.02737772      -0.60066361       0.00000000
Si       0.10803365      -2.14149969      -0.93935470       0.00000000
Si      -1.69560885       1.64636514      -0.12137923       0.00000000
Si      -0.19713995       3.36810411       0.68003358       0.00000000
Si      -1.87357710      -0.59626287       3.01072135       0.00000000
Si       2.04656972      -2.96285778       0.17079176       0.00000000
Si       2.47646281      -0.00193851      -2.68390993       0.00000000
Si      -1.99068591      -3.05825202      -0.16903564       0.00000000
Si       0.91695596      -1.75767471      -3.12655673       0.00000000
