10
Lattice="16.28999089631971 0.0 0.0 0.0 16.28999089631971 0.0 0.0 0.0 34.433804113860816" Properties=species:S:1:pos:R:3:initial_magmoms:R:1 pbc="T T T"
Si      -1.09963364      -1.49301108      -1.40565754       0.00000000
Si       2.17300455      -0.80865189      -0.30983554       0.00000000
Si      -0.91953955      -0.46656189       2.10232265       0.00000000
Si      -0.70407172       2.09746782      -0.77872092       0.00000000
Si       1.69140699      -3.12917868       0.24286176       0.00000000
Si      -2.70636263       2.36244096       0.51148001       0.00000000
Si       2.36107260      -0.60445674      -2.69172641       0.00000000
Si      -3.27467186      -1.49791437      -0.61564233       0.00000000
Si      -2.61958580      -2.13529320       1.53812446       0.00000000
Si       1.08036909      -1.48004424       3.25158594       0.00000000
