10
Lattice="16.28999089631971 0.0 0.0 0.0 16.28999089631971 0.0 0.0 0.0 34.433804113860816" Properties=species:S:1:pos:R:3:initial_magmoms:R:1 pbc="T T T"
Si       0.70407172      -2.09746782       0.77872092       0.00000000
Si      -0.89416299       0.36898479      -2.16760918       0.00000000
Si      -2.00229091       0.26497314       1.29020093       0.00000000
Si       1.78395211       1.60265907       0.54112753       0.00000000
Si      -0.39556192      -3.59047890      -0.62693662       0.00000000
Si      -2.18304475       2.33761500      -1.92178612       0.00000000
Si       0.92989999       0.35686503      -3.63304383       0.00000000
Si      -1.18679329      -0.34723764       3.58149640       0.00000000
Si       0.58233655       3.11083614       2.16633513       0.00000000
Si      -3.18359284       2.13115554       0.28621394       0.00000000
