10
Lattice="16.28999089631971 0.0 0.0 0.0 16.28999089631971 0.0 0.0 0.0 34.433804113860816" Properties=species:S:1:pos:R:3:initial_magmoms:R:1 pbc="T T T"
Si      -1.43839790       1.18418526       1.40283396       0.00000000
Si       1.34284986       1.35808101      -1.36922655       0.00000000
Si      -1.36844864      -1.35420399      -1.36698835       0.00000000
Si       1.47002589      -1.29689577       1.41430043       0.00000000
Si      -0.07194153       2.56704336       2.72009988       0.00000000
Si       2.70526401      -2.70257616      -0.01280938       0.00000000
Si       2.69882946       0.00597843      -2.72729655       0.00000000
Si       2.69408907       2.73768111      -0.00960704       0.00000000
Si      -0.01751989      -2.71002069      -2.72822626       0.00000000
Si      -2.73736250      -2.71132389      -0.01294712       0.00000000
