10
Lattice="16.28999089631971 0.0 0.0 0.0 16.28999089631971 0.0 0.0 0.0 34.433804113860816" Properties=species:S:1:pos:R:3:initial_magmoms:R:1 pbc="T T T"
Si       0.19536108      -0.83885355       2.19064541       0.00000000
Si       1.21034211      -1.55395197      -1.30517964       0.00000000
Si      -0.65110153       2.13138360      -0.79951894       0.00000000
Si      -2.03357422      -1.31253417       0.15867106       0.00000000
Si       2.42049363       2.11784661       1.05608536       0.00000000
Si       2.12725734      -2.04348276       1.84217512       0.00000000
Si      -0.47696631      -2.07441747      -2.88359167       0.00000000
Si      -1.71746677      -2.20305960       2.34239527       0.00000000
Si       1.47042825      -3.47675841       0.08116052       0.00000000
Si       3.38065881      -0.03810231       1.77451265       0.00000000
