10
Lattice="16.28999089631971 0.0 0.0 0.0 16.28999089631971 0.0 0.0 0.0 34.433804113860816" Properties=species:S:1:pos:R:3:initial_magmoms:R:1 pbc="T T T"
Si      -1.40018414       0.84457038      -1.72541002       0.00000000
Si       0.47614041       1.86541418       1.42042965       0.00000000
Si      -1.84621249      -1.52704089       0.37828998       0.00000000
Si       1.98309573       0.21747150      -1.47418085       0.00000000
Si       1.22538267      -1.54057788       2.23389429       0.00000000
Si       2.22420402       0.64545771       2.47455228       0.00000000
Si      -2.78911583      -1.06293879      -1.66821544       0.00000000
Si       3.36926070       0.87354540       0.41124315       0.00000000
Si      -0.94282122      -1.18912113      -3.16171366       0.00000000
Si      -3.41895239      -0.42083586       1.75116652       0.00000000
