10
Lattice="16.290000149 0.0 0.0 0.0 16.290000149 0.0 0.0 0.0 29.1751946751" Properties=species:S:1:pos:R:3:initial_magmoms:R:1 pbc="T T T"
H        0.45866124       1.28405926      -0.65778394       0.00000000
Si      -0.81510274       0.98950348       1.93959612       0.00000000
Si      -1.87923071      -0.70338592      -1.27708580       0.00000000
Si       2.01012086      -1.36384768      -0.08323683       0.00000000
H        0.96746311      -0.25304886      -2.47685733       0.00000000
H       -0.65511865      -2.66748752      -1.05482916       0.00000000
Si       3.16540278       0.69719572      -0.67563916       0.00000000
Si      -2.31629141       2.30034350       0.64240861       0.00000000
Si       0.78731200      -2.95319784      -1.49619151       0.00000000
Si       1.99643726       0.85563226      -2.69441675       0.00000000
