10
Lattice="16.290000149 0.0 0.0 0.0 16.290000149 0.0 0.0 0.0 29.1751946751" Properties=species:S:1:pos:R:3:initial_magmoms:R:1 pbc="T T T"
Si       1.61316613      -0.17353737      -1.68349626       0.00000000
Si      -0.43939017       2.28890792      -0.29659503       0.00000000
Si       0.24563691      -0.51495948       2.30124950       0.00000000
Si      -1.90000046      -1.30184794      -0.62700411       0.00000000
H        1.32351364      -2.22900959       1.51702260       0.00000000
H       -2.78488956      -0.45093978      -1.51430930       0.00000000
Si      -1.50076513       1.02649807       2.75523536       0.00000000
Si       0.04965192      -0.95501755      -3.27196891       0.00000000
Si      -2.33474798       2.27098403       1.04222548       0.00000000
Si      -0.86962537      -2.78958108      -2.09842588       0.00000000
