10
Lattice="16.290000149 0.0 0.0 0.0 16.290000149 0.0 0.0 0.0 29.1751946751" Properties=species:S:1:pos:R:3:initial_magmoms:R:1 pbc="T T T"
Si      -0.43854309       0.24830847      -2.28326853       0.00000000
Si       0.80982478       1.85938949       1.18083070       0.00000000
Si      -1.87411565      -0.80238025       1.19568088       0.00000000
Si       1.63307251      -1.73550404       0.08411179       0.00000000
Si       2.18473337       0.59487823       2.59821418       0.00000000
Si      -0.67118059      -2.19968759       2.63710179       0.00000000
Si      -2.15689376       1.87877459      -2.17943401       0.00000000
Si      -0.48715245      -2.04543758      -2.94860885       0.00000000
Si       1.71621668      -2.42807339      -2.14535739       0.00000000
Si       0.64407403      -3.52283145       1.23627524       0.00000000
