10
Lattice="16.290000149 0.0 0.0 0.0 16.290000149 0.0 0.0 0.0 29.1751946751" Properties=species:S:1:pos:R:3:initial_magmoms:R:1 pbc="T T T"
Si      -1.39747024       1.42508179      -1.22535818       0.00000000
Si      -1.32657616      -1.38267892       1.37580590       0.00000000
Si       1.19891143      -1.47323503      -1.42870928       0.00000000
Si       1.30893409       1.44691039       1.36936110       0.00000000
H        3.22138011       1.73035640      -0.50890292       0.00000000
Si      -0.00213399       2.65751804      -2.65292963       0.00000000
Si       2.67110390      -2.68263722       0.02523654       0.00000000
Si       2.52942977      -0.14105511      -2.82716389       0.00000000
Si      -2.90243820       0.13877451      -2.50988365       0.00000000
Si       2.73572634       0.07938117       2.70423129       0.00000000
