10
Lattice="16.290000149 0.0 0.0 0.0 16.290000149 0.0 0.0 0.0 29.1751946751" Properties=species:S:1:pos:R:3:initial_magmoms:R:1 pbc="T T T"
Si      -1.33167493       1.36630096      -1.37254703       0.00000000
Si       1.37031481       1.37355652       1.32881342       0.00000000
Si       1.36997761      -1.33972219      -1.38039516       0.00000000
Si      -1.37909512      -1.32750469       1.38885597       0.00000000
Si      -2.63634104      -2.69465924      -0.06716130       0.00000000
Si       0.05945241      -2.67884165       2.67364402       0.00000000
Si      -0.02593368       2.71394660       2.67422752       0.00000000
Si      -2.70290198       2.70650207      -0.00752720       0.00000000
Si      -2.66351276       0.01146816      -2.75594724       0.00000000
Si       2.77524588       0.03495834       2.66214899       0.00000000
