10
Lattice="16.290000149 0.0 0.0 0.0 16.290000149 0.0 0.0 0.0 29.1751946751" Properties=species:S:1:pos:R:3:initial_magmoms:R:1 pbc="T T T"
Si      -1.30476385       1.37893222      -1.37377239       0.00000000
Si       1.37905766       1.36018243       1.33564041       0.00000000
Si       1.39624849      -1.34039008      -1.34541410       0.00000000
Si      -1.38619756      -1.33558616       1.37817785       0.00000000
Si       0.08236090      -2.62876408       2.64601511       0.00000000
Si      -2.67696830      -0.00744453      -2.68175472       0.00000000
Si      -2.62787024       2.74738998       0.00265494       0.00000000
Si       0.02593368      -2.71394660      -2.67422752       0.00000000
Si      -2.61558758       0.08967645       2.80361951       0.00000000
Si       2.72559395       0.02394630       2.71224280       0.00000000
