10
Lattice="16.290000149 0.0 0.0 0.0 16.290000149 0.0 0.0 0.0 29.1751946751" Properties=species:S:1:pos:R:3:initial_magmoms:R:1 pbc="T T T"
Si      -1.31428210       0.26919225       1.91167546       0.00000000
Si       2.21109059      -0.07763814       0.80611063       0.00000000
Si      -1.29192733      -0.15609078      -2.02560459       0.00000000
Si      -0.54156105       2.38184237       0.73486480       0.00000000
Si      -0.51522012      -1.98922079       1.70307281       0.00000000
H        2.05930037       0.71930125       2.08165014       0.00000000
H       -2.42769058       0.81282214      -1.73674099       0.00000000
H        0.21098808      -1.62968419      -2.66074858       0.00000000
H        0.65526526       2.74815561       1.62424144       0.00000000
H        0.76333312      -1.94992931       2.52703866       0.00000000
