10
Lattice="16.290000149 0.0 0.0 0.0 16.290000149 0.0 0.0 0.0 29.1751946751" Properties=species:S:1:pos:R:3:initial_magmoms:R:1 pbc="T T T"
Si       1.34454403       1.37723806      -1.31515943       0.00000000
Si       1.54696357      -1.32401863       1.18407528       0.00000000
Si      -1.36583506       1.36767583       1.34748554       0.00000000
Si      -1.40631571      -1.32607117      -1.35863047       0.00000000
Si       2.57526983       2.81108388       0.11039894       0.00000000
Si       2.62998794      -2.74483245      -0.31334159       0.00000000
Si      -0.05455521       2.71901605      -2.67612391       0.00000000
Si       2.64503990       0.03300354      -2.75305890       0.00000000
Si      -2.78299992      -2.64543086       0.00528071       0.00000000
Si      -2.72002277       0.08423559       2.72032433       0.00000000
