10
Lattice="16.290000149 0.0 0.0 0.0 16.290000149 0.0 0.0 0.0 29.1751946751" Properties=species:S:1:pos:R:3:initial_magmoms:R:1 pbc="T T T"
H       -0.90096733       0.74111356       0.97882778       0.00000000
Si       1.15193107       1.63981658      -1.18121611       0.00000000
Si       1.40293098      -1.17084376       1.46071447       0.00000000
Si      -1.59291766      -1.13029795      -1.33943319       0.00000000
Si      -1.97884406       2.45516366       1.76305468       0.00000000
Si      -0.61131484       2.79658578      -2.22169107       0.00000000
Si       2.61921537       0.42735186      -2.51370560       0.00000000
Si      -0.05598873      -2.34993026       2.87786163       0.00000000
Si      -2.22448097       2.97012315      -0.53819482       0.00000000
Si       2.86379180      -2.45267129       0.11757603       0.00000000
