10
Lattice="16.290000149 0.0 0.0 0.0 16.290000149 0.0 0.0 0.0 29.1751946751" Properties=species:S:1:pos:R:3:initial_magmoms:R:1 pbc="T T T"
H        1.29720529       0.55012960       0.92065244       0.00000000
Si       1.22978098      -1.85090240      -0.66569042       0.00000000
Si      -1.02345184       1.33525873      -1.61811465       0.00000000
Si      -1.78641029      -0.58808530       1.44110874       0.00000000
H        0.95990455       1.24357861      -2.67603638       0.00000000
Si      -2.09460080       2.44494983       0.24903946       0.00000000
Si      -1.79380595      -0.70506379      -2.62830576       0.00000000
Si       2.47891448       1.08717832       1.97241821       0.00000000
Si      -0.30568185      -2.57232134      -2.27511086       0.00000000
Si      -2.85817827      -2.34747047       0.37767289       0.00000000
