10
Lattice="16.290000149 0.0 0.0 0.0 16.290000149 0.0 0.0 0.0 29.1751946751" Properties=species:S:1:pos:R:3:initial_magmoms:R:1 pbc="T T T"
H       -0.60046570      -0.09140319      -1.40014677       0.00000000
Si      -1.71543476       0.44264817       1.52533753       0.00000000
Si       0.47786715      -2.02937564       1.05935132       0.00000000
H        1.51312924      -0.85155976      -1.70345209       0.00000000
Si       1.89879500       1.49941306       0.31908910       0.00000000
Si       0.79363252      -0.93011014      -3.02882284       0.00000000
Si      -2.56170026       2.28693683       0.40159655       0.00000000
Si      -0.33684462       1.47103588       3.15745627       0.00000000
Si       2.07202286      -1.21652092       2.62072021       0.00000000
Si       0.92789470       2.95430556       1.83088934       0.00000000
