10
Lattice="16.290000149 0.0 0.0 0.0 16.290000149 0.0 0.0 0.0 29.1751946751" Properties=species:S:1:pos:R:3:initial_magmoms:R:1 pbc="T T T"
Si      -1.30292308      -1.35387820       1.43448014       0.00000000
Si       1.36028180      -1.45836226      -1.28711039       0.00000000
Si       1.39056817       1.28687743       1.43497612       0.00000000
Si      -1.30069135       1.52994052      -1.31872463       0.00000000
Si       2.70573644       0.00364896      -2.52081384       0.00000000
Si      -2.53244342       2.73076570       0.27794916       0.00000000
Si      -2.64968255      -2.68675859       0.04546079       0.00000000
Si       2.80256421       2.67744071       0.17835964       0.00000000
Si      -2.64657116      -0.05082480       2.85866726       0.00000000
Si       0.10921126       2.63204048       2.89160606       0.00000000
