10
Lattice="16.290000149 0.0 0.0 0.0 16.290000149 0.0 0.0 0.0 29.1751946751" Properties=species:S:1:pos:R:3:initial_magmoms:R:1 pbc="T T T"
Si       1.44583525      -1.19446426      -1.35590434       0.00000000
Si      -1.34545464      -1.46201122       1.23370345       0.00000000
Si      -1.35755811       1.24227541      -1.45679216       0.00000000
Si       1.42662934       1.35930277       1.27966313       0.00000000
Si      -2.70573644      -0.00364896       2.52081384       0.00000000
Si       0.08708634      -2.54107712      -2.69638783       0.00000000
Si       0.09682776       2.67379175       2.69917348       0.00000000
Si      -2.52831358       2.83397133      -0.17072040       0.00000000
Si       2.75564901      -0.03634299       2.64894254       0.00000000
Si       0.04007340      -2.80184745       2.60583619       0.00000000
