10
Lattice="16.290000149 0.0 0.0 0.0 16.290000149 0.0 0.0 0.0 29.1751946751" Properties=species:S:1:pos:R:3:initial_magmoms:R:1 pbc="T T T"
Si       1.37674936       1.34034121       1.33295629       0.00000000
Si       1.37847610      -1.36611199      -1.31212521       0.00000000
Si      -1.35378046      -1.35154873       1.36183974       0.00000000
Si      -1.35112519       1.37665162      -1.34188390       0.00000000
Si      -0.05771547       2.66155796       2.61608136       0.00000000
Si       0.00009774      -2.70161507      -2.65678075       0.00000000
Si      -2.71565705       0.02099781      -2.68945697       0.00000000
Si       2.73455346      -0.01110978      -2.67069732       0.00000000
Si       0.00892692      -2.67836924       2.74232242       0.00000000
Si       2.72611523       2.69692355      -0.02167717       0.00000000
