10
Lattice="16.290000149 0.0 0.0 0.0 16.290000149 0.0 0.0 0.0 29.1751946751" Properties=species:S:1:pos:R:3:initial_magmoms:R:1 pbc="T T T"
Si       1.71835067      -1.63046611      -0.10383452       0.00000000
Si      -2.05713380      -1.00869310      -0.72249452       0.00000000
Si       1.39447288       1.73789867      -0.91499246       0.00000000
Si      -1.00743877       1.23942466       1.84340550       0.00000000
H        0.80001820      -1.46676790      -2.64566500       0.00000000
H       -0.60401692       0.56208646      -3.10307371       0.00000000
Si      -2.36362038       2.64735308       0.53028834       0.00000000
Si       2.15689376      -1.87877459       2.17943401       0.00000000
Si      -3.47111396       0.94029139      -0.71911020       0.00000000
Si       3.58777479      -0.73412515      -1.38097866       0.00000000
