10
Lattice="16.290000149 0.0 0.0 0.0 16.290000149 0.0 0.0 0.0 29.1751946751" Properties=species:S:1:pos:R:3:initial_magmoms:R:1 pbc="T T T"
Si      -1.15649227      -0.12153969       2.05725968       0.00000000
Si      -1.53878599       1.00193275      -1.50185150       0.00000000
Si       0.95987197      -1.78105088      -1.26010583       0.00000000
Si       1.55501083       1.81872965       0.38555020       0.00000000
H        2.30850479       0.72692497      -1.58847265       0.00000000
Si       2.19295982      -0.46154457      -2.78526831       0.00000000
H        0.69918310      -2.97238746       1.93061016       0.00000000
H       -2.09699543      -2.81970129      -0.90761113       0.00000000
Si      -2.57109959       2.62690425      -0.18648784       0.00000000
Si      -0.25922277       2.44621833      -2.79049067       0.00000000
