10
Lattice="16.290000149 0.0 0.0 0.0 16.290000149 0.0 0.0 0.0 29.1751946751" Properties=species:S:1:pos:R:3:initial_magmoms:R:1 pbc="T T T"
Si      -0.51643047      -0.90818380      -2.09314517       0.00000000
Si       2.05713380       1.00869310       0.72249452       0.00000000
Si      -1.41398016       1.94898449       0.00338432       0.00000000
Si      -0.68212584      -1.76578715       1.50418551       0.00000000
H        1.45311688       1.57077955      -2.38057918       0.00000000
Si      -1.94430926      -0.33741477       2.83197079       0.00000000
H        2.85715200      -0.45807480      -1.92317048       0.00000000
Si       0.25629057       1.20446632      -3.26995582       0.00000000
Si       1.04969503       2.24811776       2.56590002       0.00000000
Si      -3.08420202       1.16502823       1.44980295       0.00000000
