10
Lattice="16.290000149 0.0 0.0 0.0 16.290000149 0.0 0.0 0.0 29.1751946751" Properties=species:S:1:pos:R:3:initial_magmoms:R:1 pbc="T T T"
H        1.27855324       0.03929148       0.82396585       0.00000000
Si      -1.37000856      -1.39288135       1.31901055       0.00000000
Si       0.62125174      -1.50956336      -1.75307910       0.00000000
Si      -0.79906197       2.25841304       0.20860264       0.00000000
Si       0.51522012       1.98922079      -1.70307281       0.00000000
Si       2.72631071       1.91158265      -0.89696219       0.00000000
Si       0.47324079      -2.56315007       2.25894780       0.00000000
H       -3.06475176       0.99248455      -1.51013725       0.00000000
Si       3.59305275      -0.16272081      -0.10214236       0.00000000
Si       2.68213223      -2.24578992      -0.91152061       0.00000000
