10
Lattice="16.290000149 0.0 0.0 0.0 16.290000149 0.0 0.0 0.0 29.1751946751" Properties=species:S:1:pos:R:3:initial_magmoms:R:1 pbc="T T T"
Si       1.32033709       1.34097652       1.39446052       0.00000000
Si      -1.35900141       1.33874479      -1.38135211       0.00000000
Si       1.41920110      -1.38178297      -1.28404408       0.00000000
Si      -1.37409735      -1.36091548       1.36190100       0.00000000
Si       0.03139083      -2.65616597      -2.66193951       0.00000000
Si       2.67613751       2.65535147      -0.00495395       0.00000000
Si       0.12898422       2.53879652      -2.81575347       0.00000000
Si       2.62213616      -2.77909032       0.15737684       0.00000000
Si      -2.86502007      -0.04673601      -2.54968270       0.00000000
Si       2.67286322      -0.02632464       2.75084450       0.00000000
