10
Lattice="16.290000149 0.0 0.0 0.0 16.290000149 0.0 0.0 0.0 29.1751946751" Properties=species:S:1:pos:R:3:initial_magmoms:R:1 pbc="T T T"
Si       1.33969939       1.35006634      -1.36700375       0.00000000
Si      -1.37911926       1.40029053       1.29108989       0.00000000
Si       1.35659212      -1.34045524       1.38535494       0.00000000
Si      -1.37609408      -1.36373365      -1.35550872       0.00000000
Si      -0.09200266      -2.71389773       2.61710249       0.00000000
Si      -2.73547221       0.07291404       2.61246363       0.00000000
Si       2.68929332      -2.68379381      -0.01727172       0.00000000
Si       2.68329860       2.69399135       0.02439046       0.00000000
Si      -0.06523168       2.68866452      -2.70033932       0.00000000
Si       2.69248616      -0.01194057      -2.72662617       0.00000000
