10
Lattice="16.290000149 0.0 0.0 0.0 16.290000149 0.0 0.0 0.0 29.1751946751" Properties=species:S:1:pos:R:3:initial_magmoms:R:1 pbc="T T T"
Si      -1.35997066       1.35329665      -1.35253285       0.00000000
Si      -1.36021501      -1.36340785       1.34223401       0.00000000
Si       1.33183783       1.35483280       1.38340021       0.00000000
Si       1.35106003      -1.36067113      -1.36014758       0.00000000
Si       2.68363091       2.70627401       0.01018214       0.00000000
Si      -2.71337645       0.02202408       2.67904143       0.00000000
Si       0.02717172      -2.70612740       2.68878594       0.00000000
Si      -2.70669755      -0.03456738      -2.69214109       0.00000000
Si       2.66351276      -0.01146816       2.75594724       0.00000000
Si      -0.01019754       2.74085769      -2.68817326       0.00000000
