10
Lattice="16.290000149 0.0 0.0 0.0 16.290000149 0.0 0.0 0.0 29.1751946751" Properties=species:S:1:pos:R:3:initial_magmoms:R:1 pbc="T T T"
Si      -1.36023130      -1.35395965       1.33044723       0.00000000
Si      -1.37406151       1.34664381      -1.33619474       0.00000000
Si       1.30728880       1.31380317       1.44603935       0.00000000
Si       1.35316144      -1.38543193      -1.33680742       0.00000000
Si       0.03077181      -2.80922682       2.51854868       0.00000000
Si       2.67398723       2.67300983       0.06937861       0.00000000
Si      -0.00931788       2.69413796      -2.68601430       0.00000000
Si       2.71337645      -0.02202408      -2.67904143       0.00000000
Si      -2.72383463      -0.02381598      -2.68718131       0.00000000
Si      -2.72404640       2.69571809       0.03786940       0.00000000
