10
Lattice="16.290000149 0.0 0.0 0.0 16.290000149 0.0 0.0 0.0 29.1751946751" Properties=species:S:1:pos:R:3:initial_magmoms:R:1 pbc="T T T"
Si       1.83195713       1.02133414      -0.94373586       0.00000000
Si       1.40589217      -1.36402687       1.25388276       0.00000000
Si      -1.32131449       1.48868660       1.20796684       0.00000000
Si      -1.30342807      -1.18501606      -1.55233888       0.00000000
Si       0.99797428       2.26582010      -2.65674574       0.00000000
Si      -2.67120164       0.09365121       2.51875874       0.00000000
Si      -2.62622495      -2.58771539      -0.21033565       0.00000000
Si       0.04974966      -2.70440066       2.56917348       0.00000000
Si       2.74378989      -2.51761952      -0.30368460       0.00000000
Si       2.82761823       0.09578520       2.47896378       0.00000000
