10
Lattice="16.290000149 0.0 0.0 0.0 16.290000149 0.0 0.0 0.0 29.1751946751" Properties=species:S:1:pos:R:3:initial_magmoms:R:1 pbc="T T T"
Si      -1.48190620       1.08119989       1.42477063       0.00000000
Si      -1.41405835      -1.43702236      -1.17053799       0.00000000
Si       1.57131224      -1.07105122       1.36011840       0.00000000
Si       1.31513569       1.47883879      -1.27090066       0.00000000
H       -2.51088035      -0.02748123       1.64233006       0.00000000
Si       1.99688849       0.73930537       2.84860766       0.00000000
Si      -0.31294068       0.92276335       3.44354823       0.00000000
Si       0.02522507      -2.67703346      -2.54025503       0.00000000
Si      -2.70171770      -0.01700676      -2.52557990       0.00000000
Si       2.82578886       0.15762204      -2.52639681       0.00000000
