10
Lattice="16.290000149 0.0 0.0 0.0 16.290000149 0.0 0.0 0.0 29.1751946751" Properties=species:S:1:pos:R:3:initial_magmoms:R:1 pbc="T T T"
Si       2.27187184      -0.43675119       0.21014893       0.00000000
Si      -0.30863034       0.75815615       2.21387212       0.00000000
H        0.75349396      -1.09180468      -1.97402285       0.00000000
Si      -0.60960439       1.76520396      -1.48242082       0.00000000
Si      -1.55501083      -1.81872965      -0.38555020       0.00000000
H       -1.36557442       1.86698226       2.25214998       0.00000000
Si       2.53179182      -1.25755543      -1.95835577       0.00000000
Si      -1.14798889      -1.15878916       3.26018213       0.00000000
Si      -1.81423361       0.62748869      -3.17604087       0.00000000
Si      -3.09379683      -0.81679690      -1.88740169       0.00000000
