10
Lattice="16.290000149 0.0 0.0 0.0 16.290000149 0.0 0.0 0.0 29.1751946751" Properties=species:S:1:pos:R:3:initial_magmoms:R:1 pbc="T T T"
Si       0.62376040      -0.40788531       2.14834464       0.00000000
Si       1.83399338       0.82761346      -1.15787595       0.00000000
Si      -0.87768892      -1.88889068      -1.06836645       0.00000000
Si      -1.60018300       1.77927527       0.09403165       0.00000000
H        2.66768300       1.75513349      -0.32775414       0.00000000
Si      -2.27258534      -0.60422869      -2.42664682       0.00000000
Si       0.53851482       2.12033900      -2.58600173       0.00000000
Si      -1.49876146      -0.98872156       3.15232143       0.00000000
Si      -3.45536967       0.84789451      -1.01357544       0.00000000
Si      -0.54450954       3.54115281      -1.08858486       0.00000000
