10
Lattice="16.290000149 0.0 0.0 0.0 16.290000149 0.0 0.0 0.0 29.1751946751" Properties=species:S:1:pos:R:3:initial_magmoms:R:1 pbc="T T T"
Si      -2.05897457       0.61094505      -0.88847220       0.00000000
Si       1.03231360      -1.62497150      -1.31536365       0.00000000
Si      -0.51927633      -1.25753425       1.93028923       0.00000000
Si       1.52208874       1.84598770       0.07626396       0.00000000
Si       2.31187682      -0.18068591      -2.60400283       0.00000000
Si      -3.30203190      -1.17629602      -0.04773062       0.00000000
Si       2.57109959      -2.62690425       0.18648784       0.00000000
Si       0.78374449       3.17323176      -1.71130022       0.00000000
Si      -2.13605885       0.27357100       3.00988813       0.00000000
Si       0.89091640       2.92326170       2.12097830       0.00000000
