10
Lattice="16.290000149 0.0 0.0 0.0 16.290000149 0.0 0.0 0.0 29.1751946751" Properties=species:S:1:pos:R:3:initial_magmoms:R:1 pbc="T T T"
Si       1.36728487       1.35013150      -1.35042640       0.00000000
Si      -1.34342002      -1.36956547      -1.36341228       0.00000000
Si       1.35156502      -1.31890357       1.40779067       0.00000000
Si      -1.36285399       1.37363797       1.34964451       0.00000000
Si       2.67199985       2.64536570       0.12504488       0.00000000
Si      -2.69922044      -2.68394042       0.03600219       0.00000000
Si       0.08358399      -2.74493019      -2.65735259       0.00000000
Si      -0.00397476       2.76205098      -2.65446424       0.00000000
Si       2.77053807      -2.64940562       0.10546833       0.00000000
Si      -2.71725347      -0.01824480      -2.72437093       0.00000000
