10
Lattice="16.290000149 0.0 0.0 0.0 16.290000149 0.0 0.0 0.0 29.1751946751" Properties=species:S:1:pos:R:3:initial_magmoms:R:1 pbc="T T T"
Si      -1.49033953       1.26210034       1.28563413       0.00000000
Si       1.29755520       1.35713620      -1.44545585       0.00000000
Si      -1.42534243      -1.27286803      -1.40186810       0.00000000
Si       1.28667055      -1.34842105       1.49957583       0.00000000
H        1.47026211       1.31688361       2.92971470       0.00000000
Si      -2.87586921      -0.56306386       2.04127167       0.00000000
Si      -2.77861791      -2.28605717       0.23156352       0.00000000
Si       2.49310470      -2.62878086      -0.11147842       0.00000000
Si       2.60602535       0.34797069       2.64085110       0.00000000
Si       2.65557628       2.76775248      -0.13198858       0.00000000
