10
Lattice="16.290000149 0.0 0.0 0.0 16.290000149 0.0 0.0 0.0 29.1751946751" Properties=species:S:1:pos:R:3:initial_magmoms:R:1 pbc="T T T"
Si       1.29785689       1.28372890       1.50622194       0.00000000
Si      -1.33509583      -1.36479218       1.40857548       0.00000000
Si       1.48480093      -1.29875252      -1.33651567       0.00000000
Si      -1.35692443       1.38702053      -1.39857131       0.00000000
Si       0.00016290      -2.55257754      -2.70920858       0.00000000
Si      -2.60814305       2.72979710       0.08773214       0.00000000
Si       2.69884577      -2.71436982       0.11166251       0.00000000
Si       2.28685538       3.07105631       0.35405849       0.00000000
Si       2.36999954       2.37848696      -1.87541069       0.00000000
Si       0.16663041       2.76112277      -2.67866215       0.00000000
