10
Lattice="16.290000149 0.0 0.0 0.0 16.290000149 0.0 0.0 0.0 29.1751946751" Properties=species:S:1:pos:R:3:initial_magmoms:R:1 pbc="T T T"
Si      -1.36625860       1.35707104      -1.32933857       0.00000000
Si       1.34931700       1.36174627       1.34763142       0.00000000
Si      -1.37725435      -1.32931288       1.35591717       0.00000000
Si       1.37508778      -1.36412461      -1.33345227       0.00000000
Si       2.66849750      -0.07921827       2.62451299       0.00000000
Si       0.00110772       2.70075170      -2.67352731       0.00000000
Si       0.01055592      -2.71977842      -2.68102534       0.00000000
Si      -2.70646949      -0.00548973      -2.69491273       0.00000000
Si      -2.68462460       2.71995761       0.06109286       0.00000000
Si      -0.06608853      -2.75745720       2.65106241       0.00000000
