10
Lattice="16.290000149 0.0 0.0 0.0 16.290000149 0.0 0.0 0.0 29.1751946751" Properties=species:S:1:pos:R:3:initial_magmoms:R:1 pbc="T T T"
H       -0.65080180       0.42282324      -0.04207063       0.00000000
Si       1.98573473       0.62553601       1.08050333       0.00000000
H       -1.79677073      -1.20761029       1.08012406       0.00000000
Si       0.75093643      -0.55361566      -2.50352345       0.00000000
Si       0.20652462       2.17357472       1.70864528       0.00000000
Si      -2.51626745      -1.28616067      -0.24524669       0.00000000
Si      -0.90723898      -2.07704018      -1.76854195       0.00000000
Si       2.61099380       0.28183329      -1.24627679       0.00000000
Si       1.22649040      -1.24688548       2.36068170       0.00000000
Si      -0.73779040       1.24554970      -2.62197475       0.00000000
