10
Lattice="16.290000149 0.0 0.0 0.0 16.290000149 0.0 0.0 0.0 29.1751946751" Properties=species:S:1:pos:R:3:initial_magmoms:R:1 pbc="T T T"
Si       1.38576425      -1.26087859       1.37082570       0.00000000
Si      -1.30581619      -1.41501457      -1.31028717       0.00000000
Si       1.44859478       1.37344249      -1.23174754       0.00000000
Si      -1.45527694       1.28075239       1.38725133       0.00000000
Si       2.06070782       0.59500855       2.66897598       0.00000000
Si       0.43856590       2.30347118       2.59971407       0.00000000
Si      -2.62973708      -0.06519258      -2.67052227       0.00000000
Si       0.09200266       2.71389773      -2.61710249       0.00000000
Si       0.08581898      -2.74269846      -2.63530781       0.00000000
Si       0.07062855      -2.73971739       2.64172635       0.00000000
