10
Lattice="16.290000149 0.0 0.0 0.0 16.290000149 0.0 0.0 0.0 29.1751946751" Properties=species:S:1:pos:R:3:initial_magmoms:R:1 pbc="T T T"
H       -1.18633555       0.50722173      -0.80506032       0.00000000
Si       1.34692237      -1.05399559      -1.62085712       0.00000000
Si       1.28964673       1.66397465       1.17541024       0.00000000
H       -1.76722067       0.62532424       1.52790495       0.00000000
Si      -0.68367502      -1.85850983       1.42004425       0.00000000
H       -0.52629732       2.19924776      -1.91050845       0.00000000
H        1.53775972      -1.06447006       2.54705285       0.00000000
H       -1.98853661       1.26822538      -2.43175248       0.00000000
Si      -3.07020891       1.10275156       0.91986471       0.00000000
Si       2.56673387       0.04421106       2.32949342       0.00000000
