10
Lattice="16.290000149 0.0 0.0 0.0 16.290000149 0.0 0.0 0.0 29.1751946751" Properties=species:S:1:pos:R:3:initial_magmoms:R:1 pbc="T T T"
Si       1.30025152      -1.34936587       1.41878972       0.00000000
Si      -1.37784079       1.34879572       1.35084069       0.00000000
Si      -1.42856785      -1.40396995      -1.24262697       0.00000000
Si       1.42734610       1.39059586      -1.28151459       0.00000000
Si      -2.63150291      -0.00666261      -2.68404789       0.00000000
Si       2.71479368      -0.05838336      -2.60968324       0.00000000
Si       0.05243751       2.65510712      -2.69889806       0.00000000
Si      -0.11331324      -2.72711381      -2.64345352       0.00000000
Si       2.63046035      -2.76891558       0.13242621       0.00000000
Si      -0.03095100       2.70575273       2.71346816       0.00000000
