10
Lattice="16.290000149 0.0 0.0 0.0 16.290000149 0.0 0.0 0.0 29.1751946751" Properties=species:S:1:pos:R:3:initial_magmoms:R:1 pbc="T T T"
Si       1.30581619       1.41501457       1.31028717       0.00000000
Si      -1.32392089       1.34982199      -1.36023510       0.00000000
Si       1.39163516      -1.32768388      -1.32502064       0.00000000
Si      -1.32527296      -1.34170957       1.42643362       0.00000000
Si      -2.58690089       2.71769330       0.02710376       0.00000000
Si       2.76667734      -2.57372228       0.10891100       0.00000000
Si       0.00838935      -2.70787043      -2.64321429       0.00000000
Si       2.69158043       0.15413598       2.68111286       0.00000000
Si      -0.14946075       2.69576696       2.69753850       0.00000000
Si       2.72855873       0.06191829      -2.67154340       0.00000000
