10
Lattice="16.290000149 0.0 0.0 0.0 16.290000149 0.0 0.0 0.0 29.1751946751" Properties=species:S:1:pos:R:3:initial_magmoms:R:1 pbc="T T T"
Si      -1.35979147       1.35737567       1.33978329       0.00000000
Si       1.34861653       1.37369825      -1.33730340       0.00000000
Si       1.38230425      -1.35938911       1.32236570       0.00000000
Si      -1.35571897      -1.37172064      -1.33826618       0.00000000
Si       2.67882536      -0.04585146      -2.62366691       0.00000000
Si       0.00350235      -2.71440761       2.65333808       0.00000000
Si      -2.72631072      -0.01107394      -2.65187932       0.00000000
Si       0.01335780       2.70480303       2.68324265       0.00000000
Si       2.73207737       0.01107068       2.67335226       0.00000000
Si      -2.70433550       0.00213399       2.70535745       0.00000000
