10
Lattice="16.290000149 0.0 0.0 0.0 16.290000149 0.0 0.0 0.0 29.1751946751" Properties=species:S:1:pos:R:3:initial_magmoms:R:1 pbc="T T T"
Si       1.37220445       1.38637675       1.30798233       0.00000000
Si       1.37122705      -1.34020112      -1.36501983       0.00000000
Si      -1.32380686       1.36489024      -1.39177349       0.00000000
Si      -1.36669843      -1.35920666       1.37666074       0.00000000
Si      -2.67398723      -2.67300983      -0.06937861       0.00000000
Si       2.67696830       0.00744453       2.68175472       0.00000000
Si      -2.68389155       2.71647155      -0.03813198       0.00000000
Si       2.70290198      -2.70650207       0.00752720       0.00000000
Si      -2.68996772       0.03445335       2.74287675       0.00000000
Si      -2.68330511       0.02112813      -2.75539291       0.00000000
