10
Lattice="16.290000149 0.0 0.0 0.0 16.290000149 0.0 0.0 0.0 29.1751946751" Properties=species:S:1:pos:R:3:initial_magmoms:R:1 pbc="T T T"
Si       1.35979147      -1.35737567      -1.33978329       0.00000000
Si       1.37314927       1.34742736       1.34345936       0.00000000
Si      -1.34454403      -1.35524168       1.36557416       0.00000000
Si      -1.32999706       1.37005417      -1.37257621       0.00000000
Si       0.00192222       2.70396083       2.67635731       0.00000000
Si       2.70840800       0.01632258      -2.67708669       0.00000000
Si       0.04469976      -2.70366761       2.69920149       0.00000000
Si       0.00407250      -2.72909631      -2.67804947       0.00000000
Si      -2.68910435       2.72561024      -0.01838037       0.00000000
Si      -2.70143588      -2.71803539       0.01540450       0.00000000
