10
Lattice="16.290000149 0.0 0.0 0.0 16.290000149 0.0 0.0 0.0 29.1751946751" Properties=species:S:1:pos:R:3:initial_magmoms:R:1 pbc="T T T"
Si      -1.40293098       1.17084376      -1.46071447       0.00000000
Si      -1.45891971      -1.17908650       1.41714715       0.00000000
Si       1.46086082      -1.28182753      -1.34313844       0.00000000
Si       1.22041228       1.48937842       1.39867634       0.00000000
H       -2.30389830       1.91195732      -0.48188669       0.00000000
Si       2.65295326       0.41031252      -2.53141494       0.00000000
Si      -0.07101169      -2.53970876       2.77355447       0.00000000
Si      -2.85417451      -2.50103630       0.05225277       0.00000000
Si       2.60594032       0.14954220       2.77080908       0.00000000
Si      -0.25099991       2.81066034      -2.64193058       0.00000000
