10
Lattice="16.290000149 0.0 0.0 0.0 16.290000149 0.0 0.0 0.0 29.1751946751" Properties=species:S:1:pos:R:3:initial_magmoms:R:1 pbc="T T T"
Si       0.52399229      -0.67608388       2.23044363       0.00000000
Si      -2.01012086       1.36384768       0.08323683       0.00000000
Si       1.15528192       2.06104340      -0.59240233       0.00000000
Si      -1.22280886      -1.58935015      -1.41295468       0.00000000
Si       2.19426302      -1.42060204      -1.04289651       0.00000000
H       -1.04265775       1.11079882      -2.39362050       0.00000000
H       -2.66523950      -1.30363984      -0.97159233       0.00000000
H       -1.55145961       2.64790694      -0.57454711       0.00000000
Si      -0.01368360       2.21947994      -2.61117992       0.00000000
H        3.39108933      -1.05428881      -0.15351987       0.00000000
