10
Lattice="16.290000149 0.0 0.0 0.0 16.290000149 0.0 0.0 0.0 29.1751946751" Properties=species:S:1:pos:R:3:initial_magmoms:R:1 pbc="T T T"
Si      -1.34607529       1.34500015      -1.36542829       0.00000000
Si      -1.35557236      -1.37064061       1.34637688       0.00000000
Si       1.35741313       1.34807896       1.36773313       0.00000000
Si       1.34364808      -1.30305340      -1.42418713       0.00000000
Si      -2.76780135      -0.11481192      -2.59050930       0.00000000
Si       0.11412774       2.78159050      -2.58071810       0.00000000
Si      -2.70034445       2.67418271       0.03573961       0.00000000
Si       2.69203655      -2.68781744      -0.06202646       0.00000000
Si       0.00713502      -2.71039538       2.71055064       0.00000000
Si      -2.71098182      -0.01783755       2.71221362       0.00000000
