10
Lattice="16.290000149 0.0 0.0 0.0 16.290000149 0.0 0.0 0.0 29.1751946751" Properties=species:S:1:pos:R:3:initial_magmoms:R:1 pbc="T T T"
Si       1.34021089       1.36256077       1.36557416       0.00000000
Si      -1.35093297       1.35907471      -1.36006005       0.00000000
Si      -1.35896394      -1.35184195       1.36227736       0.00000000
Si       1.36871839      -1.35368272      -1.35189100       0.00000000
Si      -2.68143585       2.70839171       0.03118828       0.00000000
Si       2.70646949       0.00548973       2.69491273       0.00000000
Si       0.00866628      -2.70804962      -2.70573673       0.00000000
Si       2.70757721       2.70624143       0.02138542       0.00000000
Si      -2.71077005      -2.70443324       0.00067103       0.00000000
Si       2.71702541      -2.71428869       0.01388739       0.00000000
