10
Lattice="16.290000149 0.0 0.0 0.0 16.290000149 0.0 0.0 0.0 29.1751946751" Properties=species:S:1:pos:R:3:initial_magmoms:R:1 pbc="T T T"
Si       1.80761987       1.32889749       0.60693157       0.00000000
Si      -0.73407628      -0.34388190       2.26204037       0.00000000
Si      -1.21995811       1.87290204      -0.95049867       0.00000000
Si       1.61678251      -1.53110526      -1.07959890       0.00000000
H        0.71612470      -2.51793718       0.99151899       0.00000000
H       -1.18257256      -2.94113509      -0.24973967       0.00000000
Si      -0.27337878      -2.86971973      -1.46573261       0.00000000
Si       0.47447883       2.87454157       1.76387392       0.00000000
Si      -1.46398231       1.84600725       2.66538744       0.00000000
Si      -1.16597305      -1.44986703      -3.05761875       0.00000000
