10
Lattice="16.290000149 0.0 0.0 0.0 16.290000149 0.0 0.0 0.0 29.1751946751" Properties=species:S:1:pos:R:3:initial_magmoms:R:1 pbc="T T T"
Si      -1.33675741      -1.44860455       1.25599213       0.00000000
Si       1.34446258      -1.36503685      -1.35054894       0.00000000
Si      -1.38738673       1.34271955      -1.34655194       0.00000000
Si       1.25724592       1.36715455       1.45601727       0.00000000
Si      -2.70977636      -0.08107533       2.50880417       0.00000000
Si       2.63634104       2.69465924       0.06716130       0.00000000
Si      -0.02717172       2.70612740      -2.68878594       0.00000000
Si       2.69237456      -0.01132155      -2.70804157       0.00000000
Si       2.68710068      -2.72305271       0.01870130       0.00000000
Si      -0.02638980      -2.71301807      -2.70611601       0.00000000
