10
Lattice="16.290000149 0.0 0.0 0.0 16.290000149 0.0 0.0 0.0 29.1751946751" Properties=species:S:1:pos:R:3:initial_magmoms:R:1 pbc="T T T"
Si      -1.40605507      -1.32256882       1.25161585       0.00000000
Si       1.37301895      -1.36752922      -1.25281203       0.00000000
Si       1.21841056       1.14526846       1.62094464       0.00000000
Si      -1.39100311       1.45526716      -1.18810145       0.00000000
Si      -0.36318555       1.06995979       3.42998176       0.00000000
Si       2.70977636       0.08107533      -2.50880417       0.00000000
Si      -0.04761567      -2.67700088      -2.56636682       0.00000000
Si      -2.48907944       0.09824499       2.74903272       0.00000000
Si       2.53534304       2.73057869       0.35768789       0.00000000
Si      -2.76499947       0.08747730      -2.52289578       0.00000000
