10
Lattice="16.290000149 0.0 0.0 0.0 16.290000149 0.0 0.0 0.0 29.1751946751" Properties=species:S:1:pos:R:3:initial_magmoms:R:1 pbc="T T T"
Si      -1.74692333      -0.32338582       1.49169853       0.00000000
Si       0.11578932      -2.30528426      -0.23372248       0.00000000
Si      -0.98179831       0.85810345      -1.98834787       0.00000000
Si       1.83029555       1.19092444       1.00593154       0.00000000
H       -0.41764302       2.66196033       1.49715429       0.00000000
Si      -2.50305626       2.17505222      -0.79111458       0.00000000
Si       1.69738544      -2.22997559      -2.04275961       0.00000000
Si      -1.06280848       3.50500042       0.41930590       0.00000000
Si       0.40439925      -3.19611921       2.00655319       0.00000000
Si      -3.66547809       0.73600990       0.71356691       0.00000000
