10
Lattice="10.86 0.0 0.0 0.0 10.86 0.0 0.0 0.0 10.86" Properties=species:S:1:pos:R:3:initial_magmoms:R:1 pbc="T T T"
Si       1.44494472       0.71749848       1.75052340       0.00000000
Si       1.09226622      -1.54221774      -1.49179476       0.00000000
Si      -1.62273378       1.17278226      -1.49179476       0.00000000
Si      -1.62273378      -1.54221774       1.22320524       0.00000000
Si       2.51655522       2.37787302      -0.22585542       0.00000000
Si       2.42027046      -2.78265780      -0.01513884       0.00000000
Si      -0.25314660       2.53809060       2.72924832       0.00000000
Si       2.44976622      -0.18471774      -2.84929476       0.00000000
Si       0.78167022      -1.22643066       3.50338170       0.00000000
Si      -0.26523378       2.53028226      -2.84929476       0.00000000
