10
Lattice="10.86 0.0 0.0 0.0 10.86 0.0 0.0 0.0 10.86" Properties=species:S:1:pos:R:3:initial_magmoms:R:1 pbc="T T T"
Si      -1.44494472      -0.71749848      -1.75052340       0.00000000
Si      -1.69809132       1.82059212       0.97872492       0.00000000
Si      -0.66327450      -1.94392914       1.75285830       0.00000000
Si       1.07161050       1.66037454      -1.97637882       0.00000000
Si      -3.06767850       0.45528378       2.18768184       0.00000000
Si      -3.06767850      -2.25971622      -0.52731816       0.00000000
Si      -0.35267850       3.17028378       2.18768184       0.00000000
Si      -1.66319814      -0.88305918       3.42657978       0.00000000
Si      -0.35267850      -2.25971622      -3.24231816       0.00000000
Si       2.36232150       3.17028378      -0.52731816       0.00000000
