10
Lattice="10.86 0.0 0.0 0.0 10.86 0.0 0.0 0.0 10.86" Properties=species:S:1:pos:R:3:initial_magmoms:R:1 pbc="T T T"
Si       1.29071100      -1.20509076      -1.26593934       0.00000000
Si      -1.42428900       1.50990924      -1.26593934       0.00000000
Si       1.29071100       1.50990924       1.44906066       0.00000000
Si      -1.07161050      -1.66037454       1.97637882       0.00000000
Si      -2.51655522      -2.37787302       0.22585542       0.00000000
Si       2.61065712      -2.55594444       0.06102234       0.00000000
Si      -0.06678900      -2.56259076      -2.62343934       0.00000000
Si       2.64821100       0.15240924      -2.62343934       0.00000000
Si       2.57842464       0.19898778       2.72790168       0.00000000
Si      -2.78178900       0.15240924      -2.62343934       0.00000000
