10
Lattice="10.86 0.0 0.0 0.0 10.86 0.0 0.0 0.0 10.86" Properties=species:S:1:pos:R:3:initial_magmoms:R:1 pbc="T T T"
Si       0.99992364      -1.06086996      -1.67372148       0.00000000
Si      -1.40448036       1.33834296      -1.23889794       0.00000000
Si       1.31051964       1.33834296       1.47610206       0.00000000
Si      -1.40448036      -1.37665704       1.47610206       0.00000000
Si       2.30885772      -2.39927808      -0.14032206       0.00000000
Si      -0.03489318       2.70365130      -2.44785486       0.00000000
Si       2.59504044       2.74878546       0.15648174       0.00000000
Si      -2.76198036      -0.01915704      -2.59639794       0.00000000
Si      -2.76198036       2.69584296       0.11860206       0.00000000
Si      -2.76198036      -2.73415704       0.11860206       0.00000000
