10
Lattice="16.28999089631971 0.0 0.0 0.0 16.28999089631971 0.0 0.0 0.0 34.40246978574605" Properties=species:S:1:pos:R:3:initial_magmoms:R:1 pbc="T T T"
Si       0.06706593       1.08964366       2.06473418       0.00000000
Si      -1.88171980       1.04372215      -1.01704078       0.00000000
Si       2.02092111       0.30740112      -1.24223948       0.00000000
Si      -0.17376543      -2.39391324       0.16217333       0.00000000
Si       3.45475062      -0.27588744       0.47881384       0.00000000
Si      -1.06098399       1.15682199      -3.21253883       0.00000000
Si      -0.37836783      -1.14184755      -3.37247600       0.00000000
Si      -1.14704406      -2.87863848      -1.97570054       0.00000000
Si       0.57915837       3.36128579       1.42608638       0.00000000
Si      -3.71077145      -0.38167470      -0.49484540       0.00000000
