10
Lattice="16.28999089631971 0.0 0.0 0.0 16.28999089631971 0.0 0.0 0.0 34.40246978574605" Properties=species:S:1:pos:R:3:initial_magmoms:R:1 pbc="T T T"
Si       1.29601611      -1.34690607       1.35242721       0.00000000
Si      -1.15735563      -1.25832105      -1.59037344       0.00000000
Si       1.88791326       0.81068814      -1.15096830       0.00000000
Si      -1.41468876       1.39027005       1.35444663       0.00000000
Si      -1.92153582       0.72519822      -2.61150812       0.00000000
Si      -2.72453508      -2.56455751      -0.17491946       0.00000000
Si       0.54848430      -1.79981694      -3.26484579       0.00000000
Si       2.63541249       0.04085532       2.70413884       0.00000000
Si      -0.08053776      -2.67373309       2.70751029       0.00000000
Si       1.75110984       0.22822290      -3.41614793       0.00000000
