10
Lattice="16.28999089631971 0.0 0.0 0.0 16.28999089631971 0.0 0.0 0.0 34.40246978574605" Properties=species:S:1:pos:R:3:initial_magmoms:R:1 pbc="T T T"
Si      -0.10832850       1.82669055      -1.45629176       0.00000000
Si       2.26585755      -0.97929616       0.68467834       0.00000000
Si      -0.04095306       1.25443914       2.40005524       0.00000000
Si       1.93235238       1.81157343       1.30110213       0.00000000
Si      -2.28346704       0.13818644      -1.99328021       0.00000000
Si       0.62568261      -2.07428293       2.43652188       0.00000000
Si      -2.24505522       0.54033441       2.38374846       0.00000000
Si      -0.28028574      -2.70249049      -2.03855389       0.00000000
Si      -3.25824435       1.05959445       0.12095915       0.00000000
Si       3.03122691      -0.96766672      -1.68296976       0.00000000
