10
Lattice="16.28999089631971 0.0 0.0 0.0 16.28999089631971 0.0 0.0 0.0 34.40246978574605" Properties=species:S:1:pos:R:3:initial_magmoms:R:1 pbc="T T T"
Si       1.95867702       0.38195163      -1.27932536       0.00000000
Si       0.53292735       0.26784018       2.35615767       0.00000000
Si      -1.46430810       1.70468334      -0.94885505       0.00000000
Si       1.24620129      -0.99584028      -3.04510191       0.00000000
Si      -0.08685828      -1.94086228       2.90009542       0.00000000
Si      -2.08342584      -2.28293110       1.86661025       0.00000000
Si      -3.60349461       0.62467263      -0.85218406       0.00000000
Si      -0.95174325      -0.35557812      -3.66042483       0.00000000
Si       3.83652306      -0.41744754      -0.05906907       0.00000000
Si       1.33188669      -3.28506095       1.60098863       0.00000000
