10
Lattice="16.28999089631971 0.0 0.0 0.0 16.28999089631971 0.0 0.0 0.0 34.40246978574605" Properties=species:S:1:pos:R:3:initial_magmoms:R:1 pbc="T T T"
Si       1.15346232      -2.01217990      -0.29968008       0.00000000
Si      -1.05164982      -0.11935683      -2.10677402       0.00000000
Si       1.20262554       2.02803984      -0.15130215       0.00000000
Si      -1.70583993       0.54149589       1.67447235       0.00000000
Si      -2.47002012       2.52501516       0.65333767       0.00000000
Si       1.36109466      -2.70126386       1.95826850       0.00000000
Si       1.33942896       2.61050508       2.11387749       0.00000000
Si      -0.57617730       3.49110990      -0.79586718       0.00000000
Si      -0.54848430       1.79981694       3.26484579       0.00000000
Si       2.97403272      -1.68991320      -1.78872301       0.00000000
