10
Lattice="16.28999089631971 0.0 0.0 0.0 16.28999089631971 0.0 0.0 0.0 34.40246978574605" Properties=species:S:1:pos:R:3:initial_magmoms:R:1 pbc="T T T"
Si       1.35255870       1.35228177       1.37786785       0.00000000
Si      -1.36120869      -1.36498797       1.38003521       0.00000000
Si      -1.28324475       1.44515106      -1.41139995       0.00000000
Si       1.41822369      -1.36236528      -1.37430031       0.00000000
Si      -2.46544263       0.09777258      -2.89903036       0.00000000
Si      -2.70444951       2.70679527       0.01712900       0.00000000
Si       2.70747945      -2.70694188       0.04190223       0.00000000
Si      -2.69628822      -2.72697858       0.02814124       0.00000000
Si       2.70414000       2.72051145       0.00031306       0.00000000
Si       2.71168227      -0.00358380       2.73824547       0.00000000
