10
Lattice="16.28999089631971 0.0 0.0 0.0 16.28999089631971 0.0 0.0 0.0 34.40246978574605" Properties=species:S:1:pos:R:3:initial_magmoms:R:1 pbc="T T T"
Si      -1.35576783      -1.35495333      -1.35704058       0.00000000
Si      -1.35796698       1.35755973       1.35721259       0.00000000
Si       1.35739683      -1.35796698       1.35807266       0.00000000
Si       1.35940050       1.35940050      -1.35721259       0.00000000
Si       0.00107514       2.71029762      -2.71535406       0.00000000
Si      -0.00045612       2.71469592       2.71476921       0.00000000
Si       2.71453302      -2.71509503       0.00006880       0.00000000
Si       0.00014661      -2.71569613      -2.71418437       0.00000000
Si       2.71511946       2.71490769       0.00030962       0.00000000
Si      -2.71536055      -2.71471384      -0.00013761       0.00000000
