10
Lattice="16.28999089631971 0.0 0.0 0.0 16.28999089631971 0.0 0.0 0.0 34.40246978574605" Properties=species:S:1:pos:R:3:initial_magmoms:R:1 pbc="T T T"
Si      -1.35751086      -1.35713619      -1.35755662       0.00000000
Si       1.35783666       1.35733167      -1.35769423       0.00000000
Si      -1.36122498       1.35876519       1.35669656       0.00000000
Si       1.36117611      -1.35685926       1.35876071       0.00000000
Si       2.70078426       0.00149868       2.71046890       0.00000000
Si      -2.71480018      -2.71347417       0.00044723       0.00000000
Si       0.00045612      -2.71469592      -2.71476921       0.00000000
Si       0.00011403       2.71526607      -2.71452840       0.00000000
Si      -2.71515530       0.00058644      -2.71476921       0.00000000
Si       2.71557558       0.00021177      -2.71445959       0.00000000
