10
Lattice="16.28999089631971 0.0 0.0 0.0 16.28999089631971 0.0 0.0 0.0 34.40246978574605" Properties=species:S:1:pos:R:3:initial_magmoms:R:1 pbc="T T T"
Si       0.15231150      -2.35351404      -0.33920854       0.00000000
Si       1.99759383       1.30331403      -0.35376079       0.00000000
Si      -0.36025335      -0.29325258       2.37236124       0.00000000
Si      -1.91664882       0.77866200      -1.25940632       0.00000000
Si       3.29989788       0.71995284       1.53122038       0.00000000
Si      -0.42054264       1.92844278       3.14005278       0.00000000
Si      -1.79152533      -3.10573737       0.95332737       0.00000000
Si      -2.49943986      -1.37326329       2.46903223       0.00000000
Si       1.19065239       3.60013887      -0.39328925       0.00000000
Si       2.35025604      -2.99377620       0.27611438       0.00000000
