10
Lattice="16.28999089631971 0.0 0.0 0.0 16.28999089631971 0.0 0.0 0.0 34.40246978574605" Properties=species:S:1:pos:R:3:initial_magmoms:R:1 pbc="T T T"
Si      -2.06010996      -1.14890926      -0.32861258       0.00000000
Si      -0.79066773       2.35884087       0.25880992       0.00000000
Si       0.97477731      -0.92140801      -2.11423936       0.00000000
Si       1.01318913      -0.51926004       2.26278931       0.00000000
Si       3.25824435      -1.05959445      -0.12095915       0.00000000
Si       3.14991585       0.76709610      -1.57725091       0.00000000
Si      -3.72974930       0.55376226      -0.74890778       0.00000000
Si       3.21729129       0.19484469       2.27909609       0.00000000
Si      -1.59676209      -3.21876458      -1.63948502       0.00000000
Si      -2.34369280       2.36136582      -2.14829783       0.00000000
