10
Lattice="16.28999089631971 0.0 0.0 0.0 16.28999089631971 0.0 0.0 0.0 34.40246978574605" Properties=species:S:1:pos:R:3:initial_magmoms:R:1 pbc="T T T"
Si      -1.35392706       1.35731538      -1.35580209       0.00000000
Si      -1.35604476      -1.35817875       1.35779744       0.00000000
Si       1.35861858       1.35687555       1.35769423       0.00000000
Si       1.35913986      -1.36057338      -1.35996479       0.00000000
Si      -2.69786835      -0.00605988      -2.72070364       0.00000000
Si      -2.71252935       2.71352304      -0.00010321       0.00000000
Si      -2.71331127      -2.71456560      -0.00048163       0.00000000
Si      -2.71383255      -0.00166158       2.71452840       0.00000000
Si       0.00185706       2.71502172       2.71476921       0.00000000
Si       0.00167787      -2.71611315       2.71463160       0.00000000
