10
Lattice="16.28999089631971 0.0 0.0 0.0 16.28999089631971 0.0 0.0 0.0 34.40246978574605" Properties=species:S:1:pos:R:3:initial_magmoms:R:1 pbc="T T T"
Si       1.35177678      -1.35132066      -1.35975838       0.00000000
Si      -1.37751498      -1.33683885       1.36103127       0.00000000
Si      -1.36171368       1.36303317      -1.35686857       0.00000000
Si       1.36694277       1.36391283       1.35944876       0.00000000
Si      -0.13188384       2.58261660       2.70726947       0.00000000
Si      -0.03855843      -2.71450044       2.68607754       0.00000000
Si      -2.64601728       0.13493007       2.76585691       0.00000000
Si       2.71252935      -2.71166598       0.00089446       0.00000000
Si      -0.00454491      -2.70992295      -2.71666135       0.00000000
Si       2.71065600       0.00487071      -2.71617971       0.00000000
