10
Lattice="16.28999089631971 0.0 0.0 0.0 16.28999089631971 0.0 0.0 0.0 34.40246978574605" Properties=species:S:1:pos:R:3:initial_magmoms:R:1 pbc="T T T"
Si      -2.17927620      -1.08320355      -0.19833035       0.00000000
Si      -0.21652668       1.80981900      -1.68262574       0.00000000
Si      -0.24438258       0.35477991       2.48207078       0.00000000
Si       2.19209643      -1.27184175      -0.57631050       0.00000000
Si       0.73840941       0.33881571      -3.27638985       0.00000000
Si      -0.76957218       2.63863791       2.45860828       0.00000000
Si      -1.78241922      -3.15931518       0.78214059       0.00000000
Si      -2.22871635      -0.65930517       3.24243459       0.00000000
Si      -3.73844097      -0.37023912       1.39120225       0.00000000
Si      -3.20487831      -1.21274163      -2.24789303       0.00000000
