10
Lattice="16.28999089631971 0.0 0.0 0.0 16.28999089631971 0.0 0.0 0.0 34.40246978574605" Properties=species:S:1:pos:R:3:initial_magmoms:R:1 pbc="T T T"
Si      -1.57270176       1.60805106      -0.59488784       0.00000000
Si       2.36532429      -0.01283652       0.29978329       0.00000000
Si      -0.39043872       0.00350235       2.35457515       0.00000000
Si      -0.81116055      -1.54836450      -1.67464436       0.00000000
Si      -1.81333764      -2.75053392       0.09601735       0.00000000
Si       1.30794039      -1.92492414      -2.59714710       0.00000000
Si       2.80619685      -2.04527466      -0.80835528       0.00000000
Si      -3.43113012      -1.10457603       0.90461345       0.00000000
Si      -3.65197854       0.41726835      -0.93196343       0.00000000
Si      -0.72122346       2.98820502      -2.28387804       0.00000000
