10
Lattice="16.28999089631971 0.0 0.0 0.0 16.28999089631971 0.0 0.0 0.0 34.40246978574605" Properties=species:S:1:pos:R:3:initial_magmoms:R:1 pbc="T T T"
Si       1.64149443       0.00470781       1.67302744       0.00000000
Si      -1.32372540       1.49187078       1.24867274       0.00000000
Si       1.13011875       0.88448184      -1.94119484       0.00000000
Si      -0.51209244      -2.27164213       0.63864781       0.00000000
Si       2.65018752      -2.02312189       0.77759946       0.00000000
Si      -1.23711147       0.09234801       3.19764255       0.00000000
Si      -2.27281990      -1.66959957       2.11107434       0.00000000
Si       0.08773794       3.36057813       1.42299015       0.00000000
Si      -0.57915837      -3.36128579      -1.42608638       0.00000000
Si      -0.51859215       2.31480900      -2.94481866       0.00000000
