10
Lattice="16.28999089631971 0.0 0.0 0.0 16.28999089631971 0.0 0.0 0.0 34.40246978574605" Properties=species:S:1:pos:R:3:initial_magmoms:R:1 pbc="T T T"
Si       0.97412571       1.32776532       1.67619247       0.00000000
Si       1.49882661      -1.21870377      -1.34782071       0.00000000
Si      -1.24121655       1.49780034      -1.32975941       0.00000000
Si      -1.16699931      -1.27821114       1.68255693       0.00000000
Si      -2.51413344      -2.44768653       0.05858744       0.00000000
Si      -1.65843603       0.66787371       3.03020563       0.00000000
Si       0.67539969      -2.38604517       2.69110030       0.00000000
Si       2.02903353      -0.40084803       3.11758796       0.00000000
Si       0.13188384      -2.58261660      -2.70726947       0.00000000
Si      -2.59449201       0.14889060      -2.70702865       0.00000000
