10
Lattice="16.28999089631971 0.0 0.0 0.0 16.28999089631971 0.0 0.0 0.0 34.40246978574605" Properties=species:S:1:pos:R:3:initial_magmoms:R:1 pbc="T T T"
Si      -0.02810025      -0.93721257      -2.15713927       0.00000000
Si       2.33391717       0.23967477       0.23651711       0.00000000
Si      -0.45520776      -1.78294050       1.52347982       0.00000000
Si      -1.19410587       2.11717872      -0.23720516       0.00000000
Si      -2.37128643      -0.64143504      -2.50450120       0.00000000
Si      -1.41784902      -0.48360123       3.28155022       0.00000000
Si       1.68093252       0.26192691      -3.40550239       0.00000000
Si      -0.56057148       2.93483898      -2.38983770       0.00000000
Si      -2.19331818      -3.09550725       0.56636818       0.00000000
Si       3.04416117       2.24090127      -0.89026761       0.00000000
