10
Lattice="16.28999089631971 0.0 0.0 0.0 16.28999089631971 0.0 0.0 0.0 34.40246978574605" Properties=species:S:1:pos:R:3:initial_magmoms:R:1 pbc="T T T"
Si      -1.57231080       0.63504936      -1.62434792       0.00000000
Si       2.16505503       1.02367989      -0.14982284       0.00000000
Si      -0.07055199      -2.37022758       0.79129165       0.00000000
Si      -0.05199768       3.01868428       1.59097751       0.00000000
Si      -2.29289895      -0.96883146       2.33909403       0.00000000
Si      -0.34617879       0.26024904      -3.67122721       0.00000000
Si       1.76857272       3.34095098       0.10193457       0.00000000
Si      -3.36316824      -0.92304027      -1.47906621       0.00000000
Si       3.26308248       0.74173257       1.94387824       0.00000000
Si      -1.97167644       2.98977279      -1.61757063       0.00000000
