10
Lattice="16.28999089631971 0.0 0.0 0.0 16.28999089631971 0.0 0.0 0.0 34.40246978574605" Properties=species:S:1:pos:R:3:initial_magmoms:R:1 pbc="T T T"
Si      -1.12870966       0.90106506       1.78968628       0.00000000
Si      -1.03570843      -1.76194758      -1.08656821       0.00000000
Si      -0.08661393       1.39952277      -1.94896981       0.00000000
Si       2.03183541      -1.21511997       0.40257793       0.00000000
Si       2.87860590      -0.08764020      -1.52461511       0.00000000
Si       1.23711147      -0.09234801      -3.19764255       0.00000000
Si       0.61346511       1.42925202       3.16268962       0.00000000
Si       0.72501903      -2.36399014      -2.55899474       0.00000000
Si      -1.42940352      -3.52537496       0.46188782       0.00000000
Si       2.50730793       2.39534676       1.71348477       0.00000000
