10
Lattice="16.28999089631971 0.0 0.0 0.0 16.28999089631971 0.0 0.0 0.0 34.40246978574605" Properties=species:S:1:pos:R:3:initial_magmoms:R:1 pbc="T T T"
Si       1.35786924      -1.35657347       1.35621492       0.00000000
Si      -1.35808101      -1.35724568      -1.35717819       0.00000000
Si       1.35769005       1.35734307      -1.35752222       0.00000000
Si      -1.35625653       1.35775032       1.36429951       0.00000000
Si      -0.02155167      -2.70824086       2.71077852       0.00000000
Si      -0.00001629      -2.71434961      -2.71487242       0.00000000
Si       2.71523349      -0.00007331      -2.71428758       0.00000000
Si      -2.71425609      -2.71571797      -0.00013761       0.00000000
Si      -2.71539639       0.00021503      -2.71466601       0.00000000
Si      -2.71539639       2.71493538       0.00099767       0.00000000
