10
Lattice="16.28999089631971 0.0 0.0 0.0 16.28999089631971 0.0 0.0 0.0 34.40246978574605" Properties=species:S:1:pos:R:3:initial_magmoms:R:1 pbc="T T T"
Si       1.33051833       0.39038985       1.90875330       0.00000000
Si      -1.10973996       1.40704875      -1.53531428       0.00000000
Si      -2.09899908      -0.48793437       1.17921412       0.00000000
Si       1.56916683      -1.31119839      -1.49891645       0.00000000
Si      -2.23738263       2.93845536      -0.18305564       0.00000000
Si      -2.69645112      -2.61571788       0.00863502       0.00000000
Si      -2.48122764       0.03678282      -2.88967147       0.00000000
Si       0.05377329       0.60813828       3.85624380       0.00000000
Si       0.23040576      -2.67371028      -2.89190763       0.00000000
Si       3.02058954      -2.60599275      -0.07434378       0.00000000
