10
Lattice="16.28999089631971 0.0 0.0 0.0 16.28999089631971 0.0 0.0 0.0 34.40246978574605" Properties=species:S:1:pos:R:3:initial_magmoms:R:1 pbc="T T T"
Si       1.75554072       1.18061775      -1.05151208       0.00000000
Si       1.59822819      -1.80144594       0.36332469       0.00000000
Si      -1.35047358       0.86506416       1.86213793       0.00000000
Si      -1.36166481      -0.37924749      -2.22604745       0.00000000
Si      -1.34361549      -2.94122466      -1.58595474       0.00000000
Si       3.01259115       1.87615188       0.87936202       0.00000000
Si       0.21566331      -3.69732501       0.49260924       0.00000000
Si      -1.44635652       2.03923107      -2.80438770       0.00000000
Si      -0.04816953       0.28170297       3.74711910       0.00000000
Si       2.19916629       0.70854984       2.99621598       0.00000000
