10
Lattice="16.28999089631971 0.0 0.0 0.0 16.28999089631971 0.0 0.0 0.0 34.40246978574605" Properties=species:S:1:pos:R:3:initial_magmoms:R:1 pbc="T T T"
Si      -0.29737395       1.11900897       2.05121400       0.00000000
Si      -1.30230405       0.58336119      -1.88498118       0.00000000
Si      -0.23716611      -2.33593713       0.51067055       0.00000000
Si       2.24733582       0.42684687      -0.75090313       0.00000000
Si       1.70750151       0.44737227       3.10578790       0.00000000
Si      -3.29989788      -0.71995284      -1.53122038       0.00000000
Si      -0.73779039       3.36821814       1.38435616       0.00000000
Si       3.36505788       0.64757637       1.45801189       0.00000000
Si       0.04816953      -0.28170297      -3.74711910       0.00000000
Si       3.15312498      -1.65416805      -1.45257629       0.00000000
