10
Lattice="16.28999089631971 0.0 0.0 0.0 16.28999089631971 0.0 0.0 0.0 34.40246978574605" Properties=species:S:1:pos:R:3:initial_magmoms:R:1 pbc="T T T"
Si      -1.33865258      -1.34899119      -1.36866518       0.00000000
Si       1.36068252      -1.35280305       1.35786624       0.00000000
Si      -1.35496599       1.35961227       1.35800385       0.00000000
Si       1.38244596       1.35045729      -1.35234120       0.00000000
Si      -2.61714718       0.06455727      -2.74722452       0.00000000
Si       0.00108980      -2.71256356       2.71476921       0.00000000
Si      -2.71182466       2.71660185      -0.00261459       0.00000000
Si      -2.71364914       0.00179190       2.71518204       0.00000000
Si       2.71752549       2.71244790      -0.00044723       0.00000000
Si       2.71659696      -2.71354585       0.00072245       0.00000000
