10
Lattice="16.28999089631971 0.0 0.0 0.0 16.28999089631971 0.0 0.0 0.0 34.40246978574605" Properties=species:S:1:pos:R:3:initial_magmoms:R:1 pbc="T T T"
Si       0.33185988       0.91313595      -2.11527144       0.00000000
Si       2.30405760       0.00970884       0.48118761       0.00000000
Si      -1.22984613      -2.05423416       0.22124241       0.00000000
Si      -1.11843882       1.91047491       1.02282040       0.00000000
Si       1.35461124       2.87567370      -1.26005997       0.00000000
Si       2.25629532      -0.91927728       2.59233075       0.00000000
Si      -2.95526664      -1.55027043      -1.34737348       0.00000000
Si       2.82196557       2.28929886       0.47024762       0.00000000
Si      -2.05104132      -1.78587270       2.46844739       0.00000000
Si      -1.77142347       1.93272705      -2.61919910       0.00000000
