10
Lattice="16.28999089631971 0.0 0.0 0.0 16.28999089631971 0.0 0.0 0.0 34.40246978574605" Properties=species:S:1:pos:R:3:initial_magmoms:R:1 pbc="T T T"
Si       0.13348026       0.18757935      -2.29357954       0.00000000
Si      -1.57407012      -1.47773106       0.84681727       0.00000000
Si      -0.67197879       2.10527073       0.71632863       0.00000000
Si       2.01148920      -0.68141070       0.98057414       0.00000000
Si       2.31047586       1.24352973       2.31346418       0.00000000
Si       0.09993915       1.93780953       2.94099998       0.00000000
Si       2.48083668       0.02831202      -2.65449605       0.00000000
Si      -3.50658540      -1.09792971      -0.45400965       0.00000000
Si       3.69670599      -0.30955887      -0.60744475       0.00000000
Si      -0.49210461      -3.59544735       1.00314218       0.00000000
