10
Lattice="16.28999089631971 0.0 0.0 0.0 16.28999089631971 0.0 0.0 0.0 34.40246978574605" Properties=species:S:1:pos:R:3:initial_magmoms:R:1 pbc="T T T"
Si      -0.11256390      -1.55580903      -1.72353030       0.00000000
Si      -1.08196551       2.11771629      -0.15632491       0.00000000
Si      -0.94941378      -1.13582025       1.86836478       0.00000000
Si       2.13223068       0.71705322       0.83890469       0.00000000
Si       0.40236300       0.81495612       2.57299656       0.00000000
Si      -1.55826882       2.30563773       2.15301097       0.00000000
Si      -2.11743936      -0.88417233      -2.77810420       0.00000000
Si       0.49210461       3.59544735      -1.00314218       0.00000000
Si       2.50359381       2.91403665      -0.02256803       0.00000000
Si      -0.15998409      -3.29763357       2.11795483       0.00000000
