10
Lattice="16.28999089631971 0.0 0.0 0.0 16.28999089631971 0.0 0.0 0.0 34.40246978574605" Properties=species:S:1:pos:R:3:initial_magmoms:R:1 pbc="T T T"
Si       1.33604064       1.36477620      -1.34233696       0.00000000
Si      -1.35668007       1.35609363       1.35989599       0.00000000
Si       1.35734796      -1.35935163       1.36099687       0.00000000
Si      -1.36379880      -1.35128808      -1.37734837       0.00000000
Si      -0.00030951       2.71324611       2.71759022       0.00000000
Si       2.71340901       2.71746522       0.00282100       0.00000000
Si       2.71254564      -2.71844262       0.00316503       0.00000000
Si       2.71430496      -0.00167787       2.71796864       0.00000000
Si      -2.71858923       2.71497285      -0.00127289       0.00000000
Si      -2.71590138      -0.00206883       2.71786544       0.00000000
