10
Lattice="16.28999089631971 0.0 0.0 0.0 16.28999089631971 0.0 0.0 0.0 34.40246978574605" Properties=species:S:1:pos:R:3:initial_magmoms:R:1 pbc="T T T"
Si       2.01342771       0.82751638      -0.82294194       0.00000000
Si      -0.13732470      -2.33034966      -0.03901242       0.00000000
Si      -0.13307301       1.09854940       2.09091448       0.00000000
Si      -2.07300024       0.47380835      -1.13517893       0.00000000
Si      -3.19639122      -0.25687701       0.74371301       0.00000000
Si       0.27266202       3.23839403       1.12365410       0.00000000
Si      -2.50388703      -2.49263064       0.37801455       0.00000000
Si       0.57454830      -2.69254152      -2.28277716       0.00000000
Si      -2.23197435       0.37078062       2.78371180       0.00000000
Si       3.70258668      -0.34692813       0.35080218       0.00000000
