10
Lattice="16.28999089631971 0.0 0.0 0.0 16.28999089631971 0.0 0.0 0.0 34.40246978574605" Properties=species:S:1:pos:R:3:initial_magmoms:R:1 pbc="T T T"
Si       1.27233045      -1.34572897       1.49172633       0.00000000
Si      -0.97722081      -1.68439807      -1.42698914       0.00000000
Si       1.92510333       0.87351378      -1.16700570       0.00000000
Si      -1.42672707       1.36973976       1.46098426       0.00000000
Si      -1.03990473      -0.11684328      -3.41407690       0.00000000
Si       1.19009853       0.99192579      -3.42928280       0.00000000
Si       2.62383030      -2.69530660       0.13147599       0.00000000
Si      -2.73856077      -2.68585840       0.06249900       0.00000000
Si       2.63332737       0.00477949       2.84550555       0.00000000
Si       2.73228912       2.78439594       0.10161807       0.00000000
