10
Lattice="16.28999089631971 0.0 0.0 0.0 16.28999089631971 0.0 0.0 0.0 34.40246978574605" Properties=species:S:1:pos:R:3:initial_magmoms:R:1 pbc="T T T"
Si      -1.35466011       1.35239580      -1.35962077       0.00000000
Si       1.35698958       1.35698958       1.35728140       0.00000000
Si      -1.35773892      -1.35803540       1.35745341       0.00000000
Si       1.35452979      -1.35986151      -1.36123769       0.00000000
Si      -0.00646713      -2.71036997      -2.71501691       0.00000000
Si      -2.71391400      -2.71388334      -0.00013761       0.00000000
Si       2.71334834      -2.71495078       0.00024082       0.00000000
Si      -0.00211770      -2.71477216       2.71418437       0.00000000
Si       2.71478251      -0.00008145       2.71418437       0.00000000
Si      -0.00073305       2.71484253       2.71432198       0.00000000
