10
Lattice="16.28999089631971 0.0 0.0 0.0 16.28999089631971 0.0 0.0 0.0 34.40246978574605" Properties=species:S:1:pos:R:3:initial_magmoms:R:1 pbc="T T T"
Si      -1.27856952       1.49953848       1.24664299       0.00000000
Si      -1.36868580      -1.33741643      -1.36701730       0.00000000
Si       1.34381097       1.37643495      -1.36536598       0.00000000
Si       1.42465824      -1.23960042       1.52695447       0.00000000
Si       2.30935185       0.76261146       2.58459019       0.00000000
Si       0.41849010       2.36610132       2.63602192       0.00000000
Si      -0.38869569      -2.34485983       2.72343864       0.00000000
Si       2.69928558      -2.70556930       0.03089344       0.00000000
Si      -0.01185912      -2.69719624      -2.72505556       0.00000000
Si       2.70205488       0.02080070      -2.72220015       0.00000000
