10
Lattice="16.28999089631971 0.0 0.0 0.0 16.28999089631971 0.0 0.0 0.0 34.40246978574605" Properties=species:S:1:pos:R:3:initial_magmoms:R:1 pbc="T T T"
Si       1.20332601      -0.15781752       2.00215606       0.00000000
Si      -1.89698679      -1.29274182       0.47379108       0.00000000
Si      -1.33103961       1.98855288      -0.67490803       0.00000000
Si       1.33762077      -1.26293112      -1.76443486       0.00000000
Si      -2.77439877       0.10479357      -1.31503514       0.00000000
Si       3.12983258       0.98749980       1.33192676       0.00000000
Si       0.61165692       3.40878024      -0.99664011       0.00000000
Si       1.13290434      -2.55052856       2.32942693       0.00000000
Si      -3.09018042       0.07506432       2.11389534       0.00000000
Si      -1.87385499      -0.34948566      -3.55824944       0.00000000
