10
Lattice="16.28999089631971 0.0 0.0 0.0 16.28999089631971 0.0 0.0 0.0 34.40246978574605" Properties=species:S:1:pos:R:3:initial_magmoms:R:1 pbc="T T T"
Si      -1.37093382      -1.32937803       1.34830235       0.00000000
Si      -1.35272160       1.35765747      -1.35549247       0.00000000
Si       1.35917311      -1.35601218      -1.35618052       0.00000000
Si       1.35726392       1.37551131       1.37042315       0.00000000
Si       0.08317220      -2.50435944       2.70472369       0.00000000
Si      -2.71339272       0.00026064      -2.71408116       0.00000000
Si       0.00212284      -2.71466334      -2.71421877       0.00000000
Si       2.71274831       2.71622718       0.00006880       0.00000000
Si       0.00244453       2.71551042      -2.71470041       0.00000000
Si      -2.71526607      -2.71526607       0.00120409       0.00000000
