10
Lattice="16.28999089631971 0.0 0.0 0.0 16.28999089631971 0.0 0.0 0.0 34.40246978574605" Properties=species:S:1:pos:R:3:initial_magmoms:R:1 pbc="T T T"
Si       0.56268918      -1.45016838      -1.77176259       0.00000000
Si      -2.22408999      -0.78830568       0.27119482       0.00000000
Si       1.20368897      -0.42959988       2.03174220       0.00000000
Si       0.14467149       2.26077507      -0.98425521       0.00000000
Si       2.48919575      -0.30485106      -2.44199188       0.00000000
Si      -3.12987915       1.29270924       0.97286799       0.00000000
Si      -2.31645429       2.46031128      -1.14398597       0.00000000
Si      -1.83270645      -2.40396417       2.04505596       0.00000000
Si       0.28955475       1.15988058       3.47200240       0.00000000
Si       1.72453175       1.92582009      -2.75044459       0.00000000
