10
Lattice="16.28999089631971 0.0 0.0 0.0 16.28999089631971 0.0 0.0 0.0 34.40246978574605" Properties=species:S:1:pos:R:3:initial_magmoms:R:1 pbc="T T T"
Si       1.02746636      -1.66988790       1.27447740       0.00000000
Si      -0.28675287      -1.31898501      -1.95124037       0.00000000
Si      -1.81069866       0.98403003       1.25278560       0.00000000
Si       1.77029850       1.62704520      -0.21773335       0.00000000
Si       2.35768332      -0.25301628       2.55423485       0.00000000
Si       1.26130116      -2.94664923      -1.44531737       0.00000000
Si      -0.50626062       2.33538327       2.60655416       0.00000000
Si       0.87045731       3.49089813       1.11250769       0.00000000
Si      -2.58501123       2.85317721       0.04685619       0.00000000
Si       3.00347594      -2.41846227      -0.07231403       0.00000000
