10
Lattice="16.28999089631971 0.0 0.0 0.0 16.28999089631971 0.0 0.0 0.0 34.40246978574605" Properties=species:S:1:pos:R:3:initial_magmoms:R:1 pbc="T T T"
Si      -1.34651511      -1.34988714      -1.36096935       0.00000000
Si      -1.35527913       1.35705474       1.35528605       0.00000000
Si       1.36112724      -1.35581670       1.35545807       0.00000000
Si       1.36741002       1.33475373      -1.37411454       0.00000000
Si      -2.62681137       0.18166608      -2.65763700       0.00000000
Si       0.08218305      -2.70824508      -2.64169833       0.00000000
Si      -2.71269225       0.00008145       2.71287708       0.00000000
Si       0.00177561       2.71503801       2.71239544       0.00000000
Si       0.00311139      -2.71528236       2.71253305       0.00000000
Si       2.71332660      -2.71451673      -0.00202975       0.00000000
