10
Lattice="16.28999089631971 0.0 0.0 0.0 16.28999089631971 0.0 0.0 0.0 34.40246978574605" Properties=species:S:1:pos:R:3:initial_magmoms:R:1 pbc="T T T"
Si       1.35219936      -1.35870003      -1.35748781       0.00000000
Si       1.35620996       1.35514881       1.35728140       0.00000000
Si      -1.36112724       1.35581670      -1.35545807       0.00000000
Si      -1.35801585      -1.35946566       1.35707498       0.00000000
Si       0.00628278       2.69057043      -2.72957260       0.00000000
Si      -2.70764235       0.00592956      -2.71642741       0.00000000
Si       2.71481714       2.71215468      -0.00048163       0.00000000
Si       2.71351394      -0.00302994       2.71414997       0.00000000
Si      -0.00099831       2.71322982       2.71449399       0.00000000
Si      -2.71422351      -2.71427238      -0.00010321       0.00000000
