10
Lattice="16.28999089631971 0.0 0.0 0.0 16.28999089631971 0.0 0.0 0.0 34.40246978574605" Properties=species:S:1:pos:R:3:initial_magmoms:R:1 pbc="T T T"
Si      -1.36752921      -1.34991972      -1.36670768       0.00000000
Si       1.36251018       1.35278676      -1.37441384       0.00000000
Si      -0.93408489       1.71800856       1.36392108       0.00000000
Si       1.37270342      -1.33011108       1.43059310       0.00000000
Si       2.72841114       0.13994739       2.66333749       0.00000000
Si       2.70915473      -2.69333973      -0.00292421       0.00000000
Si       2.69542063       2.72850984       0.00598603       0.00000000
Si      -2.71194291       2.72015307       0.01124961       0.00000000
Si      -0.00083079      -2.71119357      -2.72883983       0.00000000
Si       2.71020218       0.00426798      -2.73238329       0.00000000
