10
Lattice="16.28999089631971 0.0 0.0 0.0 16.28999089631971 0.0 0.0 0.0 34.40246978574605" Properties=species:S:1:pos:R:3:initial_magmoms:R:1 pbc="T T T"
Si       0.15695415      -1.95986619       1.14357314       0.00000000
Si      -1.83120777       1.40770035       0.13213996       0.00000000
Si       2.12626854       1.02019383      -0.26572483       0.00000000
Si      -0.96076791      -2.18059569      -1.06534188       0.00000000
Si      -0.14734305      -1.01299365      -3.18219583       0.00000000
Si      -0.76245345       3.17876544       1.21815773       0.00000000
Si       1.58490297       3.01949811       0.85724122       0.00000000
Si      -1.78344549       2.33668647      -1.97900318       0.00000000
Si       2.45866599      -2.31342435       1.43379253       0.00000000
Si       3.64741312      -0.29053215       1.07046785       0.00000000
