10
Lattice="16.28999089631971 0.0 0.0 0.0 16.28999089631971 0.0 0.0 0.0 34.40246978574605" Properties=species:S:1:pos:R:3:initial_magmoms:R:1 pbc="T T T"
Si      -0.13348026      -0.18757935       2.29357954       0.00000000
Si      -1.06875432      -1.77106509      -1.08601777       0.00000000
Si      -1.21495707       1.79970291      -0.96433617       0.00000000
Si       2.34735642      -0.15926733      -0.36091651       0.00000000
Si      -1.02099204      -0.84207897      -3.19716091       0.00000000
Si       0.76245345      -3.17876544      -1.21815773       0.00000000
Si      -0.50308407       1.43751105      -3.20810091       0.00000000
Si      -0.80545905       1.91769138       3.00990817       0.00000000
Si       2.92861620       1.69512111      -1.67612367       0.00000000
Si       1.87800894      -0.86899005       3.27415368       0.00000000
