10
Lattice="16.28999089631971 0.0 0.0 0.0 16.28999089631971 0.0 0.0 0.0 34.40246978574605" Properties=species:S:1:pos:R:3:initial_magmoms:R:1 pbc="T T T"
Si       2.26006550      -0.40896045      -0.37925304       0.00000000
Si      -0.58125978      -1.85438844       1.31520715       0.00000000
Si      -1.19742903       0.44738856      -2.00683479       0.00000000
Si      -0.30366189       2.08800333       1.10160210       0.00000000
Si       3.23334413       0.07576479       1.75862084       0.00000000
Si       3.02874173       1.32783048      -1.77602850       0.00000000
Si      -3.43170027      -0.25761006      -1.53197724       0.00000000
Si      -2.92861620      -1.69512111       1.67612367       0.00000000
Si      -1.99282086       3.26244784      -0.07214202       0.00000000
Si      -0.03989421      -3.85369272       0.19224111       0.00000000
