10
Lattice="16.28999089631971 0.0 0.0 0.0 16.28999089631971 0.0 0.0 0.0 34.40246978574605" Properties=species:S:1:pos:R:3:initial_magmoms:R:1 pbc="T T T"
Si      -2.14337304      -0.01389537       0.93433720       0.00000000
Si       1.14104934      -1.43435079       1.53077315       0.00000000
Si       0.61817292       2.30256611       0.16950106       0.00000000
Si       0.33601383      -0.31082949      -2.36062999       0.00000000
Si       2.35312375       1.76253143       1.67137612       0.00000000
Si      -3.49964586       1.13464804      -0.62051769       0.00000000
Si       1.95942866      -0.00089595       3.21983215       0.00000000
Si       2.16506547       1.11456736      -2.88282537       0.00000000
Si       1.07137701       3.06021401      -2.07488292       0.00000000
Si       2.67310985      -2.76418494       0.36841625       0.00000000
