10
Lattice="16.28999089631971 0.0 0.0 0.0 16.28999089631971 0.0 0.0 0.0 34.40246978574605" Properties=species:S:1:pos:R:3:initial_magmoms:R:1 pbc="T T T"
Si       2.14337304       0.01389537      -0.93433720       0.00000000
Si      -1.35627282       1.14854341      -1.55485489       0.00000000
Si      -0.95102649      -2.16236718       0.28946254       0.00000000
Si       0.02873556       0.02410920       2.47677279       0.00000000
Si      -0.17910855      -2.32982838       2.51413390       0.00000000
Si      -3.45517416       0.42077463      -0.86205757       0.00000000
Si       3.28442238      -1.42045542       0.59643595       0.00000000
Si      -3.24503316      -1.70782731       0.19347960       0.00000000
Si       2.76154596       2.31646148      -0.76483614       0.00000000
Si      -1.22319981       0.04999401      -3.64576937       0.00000000
