10
Lattice="16.28999089631971 0.0 0.0 0.0 16.28999089631971 0.0 0.0 0.0 34.40246978574605" Properties=species:S:1:pos:R:3:initial_magmoms:R:1 pbc="T T T"
Si      -0.91413422       1.58948046       1.44026020       0.00000000
Si       2.26103832       0.63257328      -0.37378304       0.00000000
Si      -0.77493617      -2.05415271       0.93585091       0.00000000
Si      -1.20368897       0.42959988      -2.03174220       0.00000000
Si      -3.03639542      -1.97436429       0.01331376       0.00000000
Si      -0.77990462       0.63892638       3.54751586       0.00000000
Si       2.68221627      -0.04139289      -2.60230748       0.00000000
Si       0.27461291       3.61237266       1.07693552       0.00000000
Si       2.41185114       3.01055490       0.29830398       0.00000000
Si      -3.42777896      -0.35870580      -1.76054738       0.00000000
