10
Lattice="16.28999089631971 0.0 0.0 0.0 16.28999089631971 0.0 0.0 0.0 34.40246978574605" Properties=species:S:1:pos:R:3:initial_magmoms:R:1 pbc="T T T"
Si      -2.13723823       0.60181776       0.77863153       0.00000000
Si       0.77216229       1.79462043      -1.39935564       0.00000000
Si       1.45769436      -0.13004307       1.92506008       0.00000000
Si      -0.15081282      -2.37798162      -0.67208703       0.00000000
Si      -1.38312363       1.83558978       2.66774101       0.00000000
Si       1.47823605       0.65497203      -3.33903678       0.00000000
Si       3.57679530      -0.50660271       1.00255733       0.00000000
Si      -3.32598536      -1.42107444       1.14195622       0.00000000
Si      -2.41185114      -3.01055490      -0.29830398       0.00000000
Si       0.45551727      -1.33221249       3.69572178       0.00000000
