10
Lattice="16.28999089631971 0.0 0.0 0.0 16.28999089631971 0.0 0.0 0.0 34.40246978574605" Properties=species:S:1:pos:R:3:initial_magmoms:R:1 pbc="T T T"
Si       1.35694602      -1.35728443      -1.35731580       0.00000000
Si      -1.35779293       1.35707103      -1.35690297       0.00000000
Si       1.35705027       1.35865116       1.35803825       0.00000000
Si      -1.35914500      -1.35623698       1.35858869       0.00000000
Si      -0.00143417      -2.71486933      -2.71394355       0.00000000
Si      -0.00212284       2.71466334       2.71421877       0.00000000
Si      -2.71478251       0.00008145      -2.71418437       0.00000000
Si       0.00089023       2.71489140      -2.71408116       0.00000000
Si       2.71430701      -2.71475009       0.00055044       0.00000000
Si       2.71433959       2.71498914       0.00003440       0.00000000
