10
Lattice="16.28999089631971 0.0 0.0 0.0 16.28999089631971 0.0 0.0 0.0 34.40246978574605" Properties=species:S:1:pos:R:3:initial_magmoms:R:1 pbc="T T T"
Si       1.41381724       1.35084825      -1.26848857       0.00000000
Si      -1.35570772      -1.47005847      -1.23274439       0.00000000
Si      -1.04670580       1.37355651       1.64127395       0.00000000
Si       1.61499875      -1.61007102       0.79875699       0.00000000
Si      -0.03299051       2.58856245      -2.65735146       0.00000000
Si       2.76095137       2.52032364       0.35548092       0.00000000
Si       2.68231954      -0.12092067      -2.67331421       0.00000000
Si       0.36654943       1.43057151       3.50688652       0.00000000
Si      -2.72841114      -0.13994739      -2.66333749       0.00000000
Si      -2.15831001      -3.21403329       0.26372948       0.00000000
