10
Lattice="16.28999089631971 0.0 0.0 0.0 16.28999089631971 0.0 0.0 0.0 34.40246978574605" Properties=species:S:1:pos:R:3:initial_magmoms:R:1 pbc="T T T"
Si      -1.35694602       1.35728443       1.35731580       0.00000000
Si      -1.35838019      -1.35758490      -1.35662775       0.00000000
Si       1.35736099      -1.35746566       1.35786624       0.00000000
Si       1.35959272       1.35976051      -1.35690297       0.00000000
Si      -0.00108980       2.71256356      -2.71476921       0.00000000
Si      -2.71473894       2.71435546       0.00041283       0.00000000
Si       2.71417138      -0.00156384       2.71518204       0.00000000
Si       2.71550716      -0.00098229      -2.71404676       0.00000000
Si       2.71536055       2.71471384       0.00013761       0.00000000
Si       0.00095134      -2.71600468       2.71452840       0.00000000
