10
Lattice="16.28999089631971 0.0 0.0 0.0 16.28999089631971 0.0 0.0 0.0 34.40246978574605" Properties=species:S:1:pos:R:3:initial_magmoms:R:1 pbc="T T T"
Si       1.18219788       1.34737848       1.48763041       0.00000000
Si      -1.97087008       0.55568448      -1.18420248       0.00000000
Si      -1.38348526      -1.32437700       1.58776573       0.00000000
Si       1.81970703      -0.34740054      -1.86299799       0.00000000
Si      -0.90419274       1.08766701      -3.22213712       0.00000000
Si       2.25487809       2.92105764      -0.10695734       0.00000000
Si      -0.73769265      -3.48982299      -1.03878316       0.00000000
Si       1.15615017      -2.52372825      -2.48798801       0.00000000
Si      -2.87071128       2.41953741       0.14603857       0.00000000
Si       2.46544263      -0.09777258       2.89903036       0.00000000
