10
Lattice="16.28999089631971 0.0 0.0 0.0 16.28999089631971 0.0 0.0 0.0 34.40246978574605" Properties=species:S:1:pos:R:3:initial_magmoms:R:1 pbc="T T T"
Si      -0.73990809      -1.09255401      -1.94539195       0.00000000
Si       2.30078331       0.01552437      -0.49543024       0.00000000
Si      -1.06667734      -0.53198253       2.03793464       0.00000000
Si      -0.13781340       2.41839711       0.35090539       0.00000000
Si       2.72389977      -1.43506755       1.35913913       0.00000000
Si       0.90419274      -1.08766701       3.22213712       0.00000000
Si       0.47881197       3.23358129      -1.83970750       0.00000000
Si      -2.86859474      -2.05785054      -1.60776592       0.00000000
Si       2.69122203       0.01202202      -2.85000540       0.00000000
Si      -0.96075651       0.42929037      -3.78196882       0.00000000
