10
Lattice="16.28999089631971 0.0 0.0 0.0 16.28999089631971 0.0 0.0 0.0 34.40246978574605" Properties=species:S:1:pos:R:3:initial_magmoms:R:1 pbc="T T T"
Si       1.34995882      -1.34581464       1.35958637       0.00000000
Si       1.35640966       1.35853902      -1.35666215       0.00000000
Si      -1.35823291      -1.35653346      -1.35707498       0.00000000
Si      -1.35460940       1.35546024       1.36374907       0.00000000
Si      -2.71425676      -2.71288773       0.00282100       0.00000000
Si       2.71322005       2.71444084       0.00065365       0.00000000
Si       2.71440922       0.00060273      -2.71445959       0.00000000
Si      -0.00102464      -2.71461447      -2.71428758       0.00000000
Si       2.71462099      -2.71428867       0.00247698       0.00000000
Si      -0.00095134       2.71600468      -2.71452840       0.00000000
