10
Lattice="16.28999089631971 0.0 0.0 0.0 16.28999089631971 0.0 0.0 0.0 34.40246978574605" Properties=species:S:1:pos:R:3:initial_magmoms:R:1 pbc="T T T"
Si      -1.34995882       1.34581464      -1.35958637       0.00000000
Si       1.35327546       1.34890974       1.37726925       0.00000000
Si       1.36466217      -1.36847403      -1.35710939       0.00000000
Si      -1.36644918      -1.35886293       1.37675321       0.00000000
Si       2.59449201      -0.14889060       2.70702865       0.00000000
Si       0.08035857      -2.59657713       2.76561609       0.00000000
Si      -2.70456822       2.70127488       0.00416270       0.00000000
Si       0.00645084       2.70435366      -2.71624852       0.00000000
Si      -2.70819173      -0.01071882      -2.71666135       0.00000000
Si       2.72271060       2.70555723       0.00216736       0.00000000
