10
Lattice="16.28999089631971 0.0 0.0 0.0 16.28999089631971 0.0 0.0 0.0 34.40246978574605" Properties=species:S:1:pos:R:3:initial_magmoms:R:1 pbc="T T T"
Si      -2.13484523       0.54573129       0.75792124       0.00000000
Si       1.52979390       1.36401057       1.17825085       0.00000000
Si       0.28147491      -0.28294101      -2.39117940       0.00000000
Si      -0.28092105      -2.21226345       1.06358735       0.00000000
Si      -3.05733978      -1.31558040      -0.24800754       0.00000000
Si      -1.46486196       0.63311085       3.00798163       0.00000000
Si       0.89625951       0.54635031       3.33088339       0.00000000
Si       2.06226513      -2.50804098       1.41094928       0.00000000
Si      -1.62149031      -3.31877799      -0.58742250       0.00000000
Si      -1.66068405       0.92027097      -3.22516454       0.00000000
