10
Lattice="16.290000149 0.0 0.0 0.0 16.290000149 0.0 0.0 0.0 29.1751946751" Properties=species:S:1:pos:R:3:initial_magmoms:R:1 pbc="T T T"
Si       1.34451145       1.35545996      -1.36534076       0.00000000
Si      -1.35668008      -1.36244511      -1.35063646       0.00000000
Si       1.38986281      -1.34861490       1.33281042       0.00000000
Si      -1.38422647       1.35488981       1.33447340       0.00000000
Si       0.02612916      -2.69863238       2.68262998       0.00000000
Si      -0.02865411       2.72276112       2.67215608       0.00000000
Si      -2.70255827      -0.00157361      -2.70611601       0.00000000
Si       2.70456356      -0.00155732      -2.70480312       0.00000000
Si       2.71766072       2.70264297      -0.02214397       0.00000000
Si       2.71018361      -2.71697492      -0.05091071       0.00000000
