10
Lattice="16.290000149 0.0 0.0 0.0 16.290000149 0.0 0.0 0.0 29.1751946751" Properties=species:S:1:pos:R:3:initial_magmoms:R:1 pbc="T T T"
Si      -1.37975161       1.44963734      -1.15918883       0.00000000
Si       1.52617753      -1.26553753      -1.21497181       0.00000000
Si       0.84629809       1.66419782       1.39437008       0.00000000
Si      -0.91917955      -1.73467325       1.27679404       0.00000000
H        0.23586291       2.97263181       0.95706309       0.00000000
Si       2.55653633      -2.09458451       0.73892016       0.00000000
Si       0.11455128      -2.66048282      -2.51496013       0.00000000
Si      -2.61126225       0.08844476      -2.60438210       0.00000000
Si       0.08869905       1.07865702       3.54697429       0.00000000
Si       0.73028071      -3.39224592       1.37712754       0.00000000
