10
Lattice="16.290000149 0.0 0.0 0.0 16.290000149 0.0 0.0 0.0 29.1751946751" Properties=species:S:1:pos:R:3:initial_magmoms:R:1 pbc="T T T"
Si       1.03780333       1.10408734      -0.20991553       0.00000000
H       -0.50236731       1.53176500       1.82237019       0.00000000
Si      -2.21263814      -0.78341869      -1.12826313       0.00000000
Si      -0.96399334       0.24853653       2.47878289       0.00000000
Si       1.04000248      -1.12979296       2.39472915       0.00000000
Si      -0.53706501      -2.46394397      -1.37861547       0.00000000
Si      -0.19010430      -2.70536177       0.98066582       0.00000000
Si       2.20426182       0.93599083       1.81151701       0.00000000
Si       2.52705306       0.02780703      -1.63348997       0.00000000
Si      -0.22046886       2.74818819      -1.36787900       0.00000000
