10
Lattice="16.290000149 0.0 0.0 0.0 16.290000149 0.0 0.0 0.0 29.1751946751" Properties=species:S:1:pos:R:3:initial_magmoms:R:1 pbc="T T T"
Si       1.31259934       1.35848827       1.34822659       0.00000000
Si      -1.37435473       1.26302887      -1.42213611       0.00000000
Si       1.28734984      -1.44976114      -1.32731965       0.00000000
Si      -1.42446277      -1.39022119       1.28456632       0.00000000
Si      -2.18730719      -0.59121298      -2.61200121       0.00000000
Si      -0.55304551      -2.32565816      -2.51656477       0.00000000
Si       2.62614350       2.64981287      -0.11560671       0.00000000
Si       2.63076986      -0.03160260       2.69063565       0.00000000
Si      -0.10324602       2.69037497       2.65227027       0.00000000
Si       2.53817750      -2.81896824       0.08722508       0.00000000
