10
Lattice="16.290000149 0.0 0.0 0.0 16.290000149 0.0 0.0 0.0 29.1751946751" Properties=species:S:1:pos:R:3:initial_magmoms:R:1 pbc="T T T"
Si       1.34745994       1.35599590       1.36376530       0.00000000
Si       1.37901367      -1.34889346      -1.34911935       0.00000000
Si      -1.35887923      -1.34516305       1.37383074       0.00000000
Si      -1.35229807       1.36878355      -1.35851376       0.00000000
Si      -0.05124834      -2.74743885      -2.59515691       0.00000000
Si       2.67963986      -2.69858513       0.06952449       0.00000000
Si      -0.02163312       2.72003906       2.70025179       0.00000000
Si       2.69369813      -0.00276930       2.73319059       0.00000000
Si      -2.67458996       0.02904507      -2.75307640       0.00000000
Si       2.70023042       2.73170271       0.01858460       0.00000000
