10
Lattice="16.290000149 0.0 0.0 0.0 16.290000149 0.0 0.0 0.0 29.1751946751" Properties=species:S:1:pos:R:3:initial_magmoms:R:1 pbc="T T T"
Si       1.34520866       1.32708115      -1.38391952       0.00000000
Si      -1.34140332      -1.35516511      -1.37210065       0.00000000
Si      -1.35616206       1.38712609       1.33161424       0.00000000
Si       1.36679291      -1.34972425       1.36440715       0.00000000
Si      -2.63096860      -2.67432932       0.09458598       0.00000000
Si       2.70517933       2.69521310      -0.01727172       0.00000000
Si      -2.69691052       0.03453480       2.71836959       0.00000000
Si      -0.03601067       2.67344966      -2.74618814       0.00000000
Si       0.00685157       2.71730234       2.71174682       0.00000000
Si       2.72669842       0.00475668       2.71839876       0.00000000
