10
Lattice="16.290000149 0.0 0.0 0.0 16.290000149 0.0 0.0 0.0 29.1751946751" Properties=species:S:1:pos:R:3:initial_magmoms:R:1 pbc="T T T"
Si      -1.36927225      -1.34908894      -1.33730340       0.00000000
Si      -1.36534636       1.34669431       1.35098656       0.00000000
Si       1.32501232      -1.38336310       1.36055603       0.00000000
Si       1.38540603       1.33159348      -1.36817075       0.00000000
Si       0.07405434      -2.68084532      -2.61926145       0.00000000
Si       2.69509582      -0.01456326       2.68601430       0.00000000
Si      -0.00664632       2.71207325       2.68233822       0.00000000
Si      -2.69591357       2.71305065      -0.02386531       0.00000000
Si       0.05339862       2.74159073      -2.67583215       0.00000000
Si      -2.72104904      -0.03075552       2.70728301       0.00000000
