10
Lattice="16.290000149 0.0 0.0 0.0 16.290000149 0.0 0.0 0.0 29.1751946751" Properties=species:S:1:pos:R:3:initial_magmoms:R:1 pbc="T T T"
Si       0.61809148       0.51293952      -2.18148766       0.00000000
Si      -2.30355263      -0.05789466       0.44454244       0.00000000
Si       0.78117067       2.04165830       0.87913614       0.00000000
Si       1.21914361      -1.87436000       0.95163650       0.00000000
Si       1.70240276       0.99725752       2.71521867       0.00000000
Si       3.03181338      -0.55084636       1.55576726       0.00000000
Si       1.30536658      -1.53730035      -2.94686971       0.00000000
Si      -0.23747562      -0.03000618       3.61480662       0.00000000
Si      -2.43910172       0.33567174       2.80259838       0.00000000
Si      -3.17141868       2.02900097      -0.33145939       0.00000000
