10
Lattice="16.290000149 0.0 0.0 0.0 16.290000149 0.0 0.0 0.0 29.1751946751" Properties=species:S:1:pos:R:3:initial_magmoms:R:1 pbc="T T T"
Si      -1.30383532      -1.35451351       1.43215196       0.00000000
Si       1.36507921      -1.45327978      -1.28471511       0.00000000
Si       1.38918352       1.28581858       1.43489442       0.00000000
Si      -1.30256470       1.52612866      -1.31958239       0.00000000
Si       2.70756092       0.00198738      -2.52779167       0.00000000
Si      -2.53376291       2.72989061       0.27499955       0.00000000
Si      -2.65654064      -2.68517846       0.04767810       0.00000000
Si       2.80207551       2.67384062       0.17767985       0.00000000
Si      -2.64777662      -0.05102028       2.85534713       0.00000000
Si       0.10720824       2.63176355       2.88916118       0.00000000
