10
Lattice="16.290000149 0.0 0.0 0.0 16.290000149 0.0 0.0 0.0 29.1751946751" Properties=species:S:1:pos:R:3:initial_magmoms:R:1 pbc="T T T"
Si      -1.34746320      -1.34674318       1.36825828       0.00000000
Si       1.35086455      -1.36883242      -1.36076025       0.00000000
Si      -1.36622114       1.34850250      -1.37006714       0.00000000
Si       1.33051834       1.34742736       1.41321725       0.00000000
Si      -2.64819642       2.69444747       0.08419961       0.00000000
Si       0.04667085       2.73652454      -2.62728171       0.00000000
Si       2.70396083       0.03262887      -2.67767603       0.00000000
Si      -2.71047683      -2.67691943      -0.01187430       0.00000000
Si       2.71722089       2.70844058       0.10946533       0.00000000
Si       0.00373041      -2.70604595       2.72735555       0.00000000
