10
Lattice="16.290000149 0.0 0.0 0.0 16.290000149 0.0 0.0 0.0 29.1751946751" Properties=species:S:1:pos:R:3:initial_magmoms:R:1 pbc="T T T"
Si      -1.29011914      -1.43911612       1.28061600       0.00000000
Si       1.30416112      -1.41279148      -1.33704082       0.00000000
Si      -1.43405758       1.62752528      -0.92680841       0.00000000
Si       1.19065240       1.14737264       1.69201542       0.00000000
Si      -0.80353684       2.03397707       2.66812990       0.00000000
Si      -2.32007069       0.18427199       2.59767181       0.00000000
Si      -0.08560395       2.64758880      -2.55968570       0.00000000
Si       2.62939580       2.57197062       0.34712647       0.00000000
Si       0.23679144      -2.43648767       2.78567676       0.00000000
Si       1.76407670      -0.59179176       3.21038007       0.00000000
