10
Lattice="16.290000149 0.0 0.0 0.0 16.290000149 0.0 0.0 0.0 29.1751946751" Properties=species:S:1:pos:R:3:initial_magmoms:R:1 pbc="T T T"
Si      -1.37106415       1.34592868       1.33809113       0.00000000
Si      -1.38512242      -1.34988715      -1.32557497       0.00000000
Si       1.36340785      -1.36560700       1.33514443       0.00000000
Si       1.36948402       1.35842311      -1.33814948       0.00000000
Si       0.00770517       2.68108967       2.68268833       0.00000000
Si      -0.05497875      -2.76903939      -2.61179260       0.00000000
Si      -0.00096111      -2.71309301       2.68531409       0.00000000
Si       2.69640227      -0.00061902      -2.70401539       0.00000000
Si      -2.72031599      -0.01876608       2.69508778       0.00000000
Si       2.72339480      -0.02202408       2.69847211       0.00000000
