10
Lattice="16.290000149 0.0 0.0 0.0 16.290000149 0.0 0.0 0.0 29.1751946751" Properties=species:S:1:pos:R:3:initial_magmoms:R:1 pbc="T T T"
Si      -1.31004181      -1.31864293       1.37805035       0.00000000
Si       1.27478862      -1.42664563      -1.31283037       0.00000000
Si      -1.13525011       1.50830740      -1.37298962       0.00000000
Si       1.48797585       1.37940463       1.18174797       0.00000000
Si       1.96786460       0.34699329      -2.81045146       0.00000000
H       -2.32960034       0.97906159      -2.42329663       0.00000000
Si       0.53059463       2.27253647      -2.82667287       0.00000000
Si       0.14830221      -2.69832449       2.60017008       0.00000000
Si      -2.56297088       0.08889453       2.73959542       0.00000000
Si       0.11704365       2.75299374       2.54804859       0.00000000
