10
Lattice="16.290000149 0.0 0.0 0.0 16.290000149 0.0 0.0 0.0 29.1751946751" Properties=species:S:1:pos:R:3:initial_magmoms:R:1 pbc="T T T"
Si       1.36047239      -1.24160752       1.45406807       0.00000000
Si      -1.17182654       1.58772881       1.29009793       0.00000000
Si       1.31560973       1.42700401      -1.34564750       0.00000000
Si      -1.45901712      -1.38212506      -1.35124914       0.00000000
Si      -0.52553495       2.59959569      -2.27756157       0.00000000
Si       2.80575379      -2.43266717       0.09455681       0.00000000
Si      -1.46209593       3.40822641      -0.28203661       0.00000000
Si       0.00207209      -2.58636332      -2.69861798       0.00000000
Si      -2.64965323       0.28253376       2.66227736       0.00000000
Si       0.01799068      -2.69687468       2.69714463       0.00000000
