10
Lattice="16.290000149 0.0 0.0 0.0 16.290000149 0.0 0.0 0.0 29.1751946751" Properties=species:S:1:pos:R:3:initial_magmoms:R:1 pbc="T T T"
Si       1.37441989      -1.34639132       1.33677824       0.00000000
Si       1.36436896       1.34748601      -1.35016966       0.00000000
Si      -1.34993602      -1.36978376      -1.35124914       0.00000000
Si      -1.35019666       1.34955484       1.37313054       0.00000000
Si       0.01933623      -2.70124692       2.67098907       0.00000000
Si       0.00096111       2.71309301      -2.68531409       0.00000000
Si      -2.73245204      -0.00987337      -2.67288546       0.00000000
Si      -2.71935488       2.69432693       0.00977369       0.00000000
Si       2.72435591       2.69106893       0.01315801       0.00000000
Si       2.72681570      -0.01509269      -2.69590469       0.00000000
