10
Lattice="16.290000149 0.0 0.0 0.0 16.290000149 0.0 0.0 0.0 29.1751946751" Properties=species:S:1:pos:R:3:initial_magmoms:R:1 pbc="T T T"
Si      -1.44528139       1.19105965       1.35951126       0.00000000
Si      -1.36138789      -1.32665761      -1.35264955       0.00000000
Si       1.28523214      -1.48685347       1.33779033       0.00000000
Si       1.30956940       1.37280718      -1.48037855       0.00000000
Si       2.17093574      -0.49876722      -2.59455006       0.00000000
Si       0.37846557      -2.10522188      -2.70605766       0.00000000
Si      -0.02166570       2.55181223       2.64160965       0.00000000
Si      -2.80575379       2.43266717      -0.09455681       0.00000000
Si       2.69210171      -0.19481211       2.69240075       0.00000000
Si      -2.78776311      -0.26420751       2.60258783       0.00000000
