10
Lattice="16.290000149 0.0 0.0 0.0 16.290000149 0.0 0.0 0.0 29.1751946751" Properties=species:S:1:pos:R:3:initial_magmoms:R:1 pbc="T T T"
Si       1.38818494       1.28510182       1.36626999       0.00000000
Si      -1.63729325       1.17729460      -1.21048320       0.00000000
Si       1.25284762      -1.33821863      -1.49179043       0.00000000
Si      -1.33395065      -1.40672296       1.35249638       0.00000000
Si      -2.96973219      -0.79935031      -1.70287296       0.00000000
Si      -2.67946279      -2.61984791      -0.13073842       0.00000000
Si      -0.03179808       2.66519063       2.65354960       0.00000000
Si       2.61058655      -2.72096515      -0.09126439       0.00000000
Si       2.59154354      -0.11129328       2.81146909       0.00000000
Si      -2.76377967      -0.09438426       2.70251725       0.00000000
