10
Lattice="16.290000149 0.0 0.0 0.0 16.290000149 0.0 0.0 0.0 29.1751946751" Properties=species:S:1:pos:R:3:initial_magmoms:R:1 pbc="T T T"
Si       1.34801380       1.36182772       1.35072399       0.00000000
Si      -1.34289223       1.35801586      -1.36394035       0.00000000
Si       1.35902584      -1.35562123      -1.35404996       0.00000000
Si      -1.36779312      -1.36498798       1.34442215       0.00000000
Si      -0.03332934      -2.69894351      -2.68365111       0.00000000
Si       2.69102657      -0.02119329       2.69465016       0.00000000
Si      -2.67748291      -0.01883124      -2.70976291       0.00000000
Si      -0.04025259       2.71261082       2.68461389       0.00000000
Si       2.69627195       2.70958088      -0.02762891       0.00000000
Si       2.68920209      -2.72510525       0.01910975       0.00000000
