10
Lattice="16.290000149 0.0 0.0 0.0 16.290000149 0.0 0.0 0.0 29.1751946751" Properties=species:S:1:pos:R:3:initial_magmoms:R:1 pbc="T T T"
Si       0.27498498      -0.82455094      -2.15175813       0.00000000
Si      -2.26892661       0.48228174      -0.11950160       0.00000000
Si       1.28286358       1.98877933       0.11842212       0.00000000
Si       1.03049889      -1.54504135       1.47819041       0.00000000
Si      -2.54566113       1.21952968       2.08766023       0.00000000
Si       3.35184020       1.26515472       0.96158524       0.00000000
Si       2.57068583      -0.23319135       2.67142670       0.00000000
Si       1.19416453       0.91012231      -3.42855218       0.00000000
Si       1.92444523      -2.48212361      -2.05142464       0.00000000
Si       2.38761881      -2.90830260       0.16145553       0.00000000
