10
Lattice="16.290000149 0.0 0.0 0.0 16.290000149 0.0 0.0 0.0 29.1751946751" Properties=species:S:1:pos:R:3:initial_magmoms:R:1 pbc="T T T"
Si      -1.36827856      -1.35294967       1.34742427       0.00000000
Si       1.30422628       1.29569032       1.47468647       0.00000000
Si      -1.36875097       1.41723001      -1.30177385       0.00000000
Si       1.36938628      -1.34548885      -1.38696541       0.00000000
Si       2.65882124       2.63660168       0.15844465       0.00000000
Si       2.71344161      -2.71042796      -0.01056142       0.00000000
Si      -2.73067643       0.02246391       2.69622270       0.00000000
Si      -0.01594791      -2.66986586       2.75731556       0.00000000
Si      -2.71221986      -2.72025083      -0.02225484       0.00000000
Si      -2.77562055       0.12518865      -2.65638426       0.00000000
