10
Lattice="16.290000149 0.0 0.0 0.0 16.290000149 0.0 0.0 0.0 29.1751946751" Properties=species:S:1:pos:R:3:initial_magmoms:R:1 pbc="T T T"
Si      -0.97847515       1.85911256      -0.89643703       0.00000000
Si      -1.76583602      -1.48377466       0.33344330       0.00000000
Si       0.38512818       0.64495369       2.22242045       0.00000000
Si       1.75773989      -0.97080256      -1.26019336       0.00000000
H       -0.39082968      -1.22284144      -2.57018877       0.00000000
Si       1.86691547      -1.22622976       2.57587794       0.00000000
Si       2.49496013      -2.29628729       0.52947143       0.00000000
Si      -2.46617570       0.84510892      -2.36453283       0.00000000
Si      -1.07856091      -3.53401453      -0.43193876       0.00000000
Si      -3.58640643      -0.59715883      -0.81311268       0.00000000
