10
Lattice="16.290000149 0.0 0.0 0.0 16.290000149 0.0 0.0 0.0 29.1751946751" Properties=species:S:1:pos:R:3:initial_magmoms:R:1 pbc="T T T"
Si       1.32897242      -1.35917245       1.36560334       0.00000000
Si      -1.34232696      -1.36089919      -1.35422501       0.00000000
Si      -1.32025401       1.33633387       1.40709046       0.00000000
Si       1.35073586       1.36541152      -1.36373612       0.00000000
Si       2.63942148       0.07064973       2.68855254       0.00000000
Si      -2.66007395       2.70203861       0.03159674       0.00000000
Si      -2.67854681       0.01444923      -2.70760394       0.00000000
Si      -2.69610743      -2.70888041       0.01966408       0.00000000
Si       2.70702498      -2.70500339       0.00825658       0.00000000
Si       0.02319533      -2.71218728      -2.70392787       0.00000000
