10
Lattice="16.290000149 0.0 0.0 0.0 16.290000149 0.0 0.0 0.0 29.1751946751" Properties=species:S:1:pos:R:3:initial_magmoms:R:1 pbc="T T T"
Si      -1.35751087      -1.35018037      -1.35197852       0.00000000
Si      -1.34483725       1.33086043       1.38614267       0.00000000
Si       1.34480467      -1.38131056       1.35402078       0.00000000
Si       1.34074846       1.35259129      -1.38675535       0.00000000
Si       0.06594192      -2.70886412      -2.62378361       0.00000000
Si      -2.70731657       2.67095729       0.02228985       0.00000000
Si       2.70376210       2.68276754      -0.00662277       0.00000000
Si      -2.69656517      -0.06050106       2.71373073       0.00000000
Si       2.69639902      -0.02832831       2.71524784       0.00000000
Si       2.69691052      -0.03453480      -2.71836959       0.00000000
