10
Lattice="16.290000149 0.0 0.0 0.0 16.290000149 0.0 0.0 0.0 29.1751946751" Properties=species:S:1:pos:R:3:initial_magmoms:R:1 pbc="T T T"
Si      -1.34289874      -1.33370304       1.34817991       0.00000000
Si       1.31626459      -1.32380035      -1.39900018       0.00000000
Si      -1.20335860       1.39639510      -1.44519910       0.00000000
Si       1.43026201       1.39854538       1.24603755       0.00000000
Si       2.30167928       0.46310841      -2.55509353       0.00000000
Si       0.66741760       2.19755360      -2.65052997       0.00000000
Si      -2.64419282      -2.66603771      -0.07276585       0.00000000
Si      -2.69998607       0.05895351       2.63938650       0.00000000
Si       0.05124834       2.74743885       2.59515691       0.00000000
Si       2.69892722      -2.64928806      -0.03270831       0.00000000
