10
Lattice="16.290000149 0.0 0.0 0.0 16.290000149 0.0 0.0 0.0 29.1751946751" Properties=species:S:1:pos:R:3:initial_magmoms:R:1 pbc="T T T"
Si      -1.43451370       1.32180319       1.28207475       0.00000000
Si      -1.37728693      -1.34011315      -1.33246032       0.00000000
Si       1.34905636       1.35806473      -1.35308718       0.00000000
Si       1.35698959      -1.33457455       1.37733177       0.00000000
Si      -0.00830790       2.71140536       2.46151117       0.00000000
Si       0.00096111      -2.70642062      -2.64429377       0.00000000
Si       2.72859132       0.01117494      -2.67411082       0.00000000
Si      -2.72810261       0.03652218      -2.67457762       0.00000000
Si      -0.01278765       2.75250504      -2.65809364       0.00000000
Si       0.01528002      -2.66752010       2.74990797       0.00000000
