10
Lattice="16.290000149 0.0 0.0 0.0 16.290000149 0.0 0.0 0.0 29.1751946751" Properties=species:S:1:pos:R:3:initial_magmoms:R:1 pbc="T T T"
Si      -1.34788674       1.33630129      -1.37540620       0.00000000
Si       1.31266450       1.46763127       1.27968239       0.00000000
Si      -1.40915506      -1.29444577       1.38938112       0.00000000
Si       1.41882643      -1.35538503      -1.33596134       0.00000000
H        2.21970800       0.56892826       2.08798116       0.00000000
H        0.20645946       0.22854870       3.50563304       0.00000000
Si      -0.02940345      -2.74408311       2.54856996       0.00000000
Si      -2.64066570      -2.65563834      -0.05581215       0.00000000
Si      -2.62005805       2.69781950       0.04688454       0.00000000
Si       0.07486884      -2.70146846      -2.72446720       0.00000000
