10
Lattice="16.290000149 0.0 0.0 0.0 16.290000149 0.0 0.0 0.0 29.1751946751" Properties=species:S:1:pos:R:3:initial_magmoms:R:1 pbc="T T T"
Si       0.08933436      -0.69858037      -2.22868145       0.00000000
Si      -0.98541469      -1.78690876       1.15609335       0.00000000
Si       1.84039535       0.87589702       1.18924512       0.00000000
Si      -1.63426168       1.73444519      -0.09543644       0.00000000
H        2.53607609      -0.95171068      -0.72951407       0.00000000
Si      -2.30167928      -0.46310841       2.55509353       0.00000000
Si       0.55304551       2.32565816       2.51656477       0.00000000
Si      -2.04389003       1.95496292      -2.39133316       0.00000000
Si      -2.11229174      -0.33290244      -3.04088970       0.00000000
Si       2.02921274       0.32868333      -3.12826940       0.00000000
