10
Lattice="16.290000149 0.0 0.0 0.0 16.290000149 0.0 0.0 0.0 29.1751946751" Properties=species:S:1:pos:R:3:initial_magmoms:R:1 pbc="T T T"
Si       0.73722025      -1.32548473       1.78966479       0.00000000
Si      -1.75773989       0.97080256       1.26019336       0.00000000
Si       1.39129633       1.82464292      -0.74991920       0.00000000
Si       0.10669950      -1.73193653      -1.80527352       0.00000000
H       -2.14856957      -0.25203888      -1.30999542       0.00000000
Si       2.88205941       0.55951264      -2.03356942       0.00000000
Si       2.73140948      -2.21208917       0.81355030       0.00000000
Si      -0.77931361      -3.17518981       1.71920670       0.00000000
Si      -2.79168249       0.58986091      -2.38988607       0.00000000
Si       1.54075708      -3.35946181      -0.87846511       0.00000000
