10
Lattice="16.290000149 0.0 0.0 0.0 16.290000149 0.0 0.0 0.0 29.1751946751" Properties=species:S:1:pos:R:3:initial_magmoms:R:1 pbc="T T T"
H       -1.19435023      -0.52924581      -1.05030701       0.00000000
Si      -1.53052696       1.27685908       1.19635803       0.00000000
Si       1.13525011      -1.50830740       1.37298962       0.00000000
Si       1.66584474       0.76422907      -1.45368325       0.00000000
Si      -2.46975950      -1.08642898      -1.98082067       0.00000000
Si       3.10311471      -1.16131411      -1.43746184       0.00000000
Si      -0.13958901       2.59739165       2.56713121       0.00000000
Si       2.62322597      -0.12890277       2.55473759       0.00000000
Si       2.76502227       2.50361012      -0.23646495       0.00000000
Si       2.41003873      -2.93495304       0.06015925       0.00000000
