10
Lattice="16.290000149 0.0 0.0 0.0 16.290000149 0.0 0.0 0.0 29.1751946751" Properties=species:S:1:pos:R:3:initial_magmoms:R:1 pbc="T T T"
Si      -1.02856690       1.49011147       1.47139259       0.00000000
Si       0.91478125       1.83580157      -1.16916675       0.00000000
Si      -1.33784884      -1.45583731      -1.29467844       0.00000000
Si       1.50268735      -1.31240386       1.29462009       0.00000000
H       -1.91581805       2.33798969       0.58274534       0.00000000
H        2.78049126      -1.02097576      -1.30089276       0.00000000
Si       2.31886523      -2.30420423      -0.64448005       0.00000000
Si       0.44114949      -3.00351765      -1.92293708       0.00000000
Si       0.86618818       2.79220377       2.10361906       0.00000000
Si       2.47694339       2.61553871       0.42347795       0.00000000
