10
Lattice="16.290000149 0.0 0.0 0.0 16.290000149 0.0 0.0 0.0 29.1751946751" Properties=species:S:1:pos:R:3:initial_magmoms:R:1 pbc="T T T"
Si       1.34886088      -1.35078310      -1.34188711       0.00000000
Si       1.30214116       1.18350109       1.55345921       0.00000000
Si      -1.31976694      -1.40120065       1.34645828       0.00000000
Si      -1.21645576       1.41504715      -1.44869750       0.00000000
Si      -0.14851593      -2.63287127      -2.63306453       0.00000000
Si       0.40133673       2.89761799      -2.39140639       0.00000000
Si      -2.70534548      -0.04737132       2.66864601       0.00000000
Si      -2.69939963       2.71289020      -0.11092730       0.00000000
Si      -2.72663651      -2.69324201      -0.00815213       0.00000000
Si      -0.01951542       2.67327401       2.75909787       0.00000000
