10
Lattice="16.290000149 0.0 0.0 0.0 16.290000149 0.0 0.0 0.0 29.1751946751" Properties=species:S:1:pos:R:3:initial_magmoms:R:1 pbc="T T T"
Si      -1.33999912      -1.34869798       1.37251786       0.00000000
Si       1.32382315      -1.37098270      -1.37330559       0.00000000
Si      -1.35975889       1.32540328      -1.39121916       0.00000000
Si       1.34379469       1.32719518       1.40738222       0.00000000
Si       2.69967656       2.67423158       0.01412079       0.00000000
Si       2.62790282      -2.75131587       0.00198391       0.00000000
Si      -2.73268011       2.68447799      -0.06978707       0.00000000
Si      -2.73228914       0.00447975       2.68583925       0.00000000
Si       2.67760361      -0.02300148      -2.74719468       0.00000000
Si      -0.00540828       2.70016526      -2.73362822       0.00000000
