10
Lattice="16.290000149 0.0 0.0 0.0 16.290000149 0.0 0.0 0.0 29.1751946751" Properties=species:S:1:pos:R:3:initial_magmoms:R:1 pbc="T T T"
Si       1.28846734       1.40818906       1.32084859       0.00000000
Si      -1.32289462       1.37376829      -1.33517361       0.00000000
Si       1.40377121      -1.31830084      -1.31448840       0.00000000
Si      -1.31804020      -1.32698341       1.44212987       0.00000000
Si      -2.56038077       2.73996174       0.08271168       0.00000000
Si       0.01242927      -2.69397506      -2.62638020       0.00000000
Si       2.77358430      -2.55725309       0.13029642       0.00000000
Si      -2.71085150       0.01534518      -2.66597094       0.00000000
Si       2.73546570       0.07943004      -2.65634312       0.00000000
Si       2.70391196       0.18298557       2.70004757       0.00000000
