10
Lattice="16.290000149 0.0 0.0 0.0 16.290000149 0.0 0.0 0.0 29.1751946751" Properties=species:S:1:pos:R:3:initial_magmoms:R:1 pbc="T T T"
Si       1.46108921      -1.20423826      -1.34736884       0.00000000
Si      -1.15558003      -1.63615133       1.18465878       0.00000000
Si      -1.76826323       1.15691581      -1.03096385       0.00000000
Si       1.45901712       1.38212506       1.35124914       0.00000000
H       -2.07112691      -0.88282027       2.14198444       0.00000000
Si      -3.37901844       1.33358086       0.64917726       0.00000000
Si       2.90338302      -2.37719972       0.09315640       0.00000000
Si       2.64261269       0.32027769      -2.66054435       0.00000000
Si      -0.93354733       3.08484873      -2.05107454       0.00000000
Si       0.23274908      -2.79355584       2.66918021       0.00000000
