10
Lattice="16.290000149 0.0 0.0 0.0 16.290000149 0.0 0.0 0.0 29.1751946751" Properties=species:S:1:pos:R:3:initial_magmoms:R:1 pbc="T T T"
Si      -1.42946380       1.44443431       1.12073593       0.00000000
Si      -1.35993808      -1.30797298      -1.38976040       0.00000000
Si       1.34913781       1.39110085      -1.34544328       0.00000000
Si       1.33232653      -1.31470075       1.44303430       0.00000000
H       -0.58505536       2.37807938       1.93142706       0.00000000
Si      -2.70164765      -2.64091853      -0.01718419       0.00000000
Si       0.01298313      -2.66704769      -2.71119249       0.00000000
Si       2.71653671      -2.66525579       0.08740888       0.00000000
Si       2.73259866       0.04748535      -2.68134627       0.00000000
Si      -2.72523557       2.73800694      -0.30558099       0.00000000
