10
Lattice="16.290000149 0.0 0.0 0.0 16.290000149 0.0 0.0 0.0 29.1751946751" Properties=species:S:1:pos:R:3:initial_magmoms:R:1 pbc="T T T"
H        0.64311292      -0.84189979       1.07989066       0.00000000
Si      -1.43223310       1.22605057       1.28554660       0.00000000
Si      -1.44024778      -1.32996448      -1.20972027       0.00000000
Si       1.50166108       1.36137160      -1.16140615       0.00000000
Si       0.05546745       2.24005421       2.75364240       0.00000000
Si       0.08104275      -2.64670637      -2.40674933       0.00000000
Si       1.06295509      -3.50741622      -0.41988940       0.00000000
Si       0.15956055       2.70842429      -2.54445625       0.00000000
Si       2.79168249      -0.58986091       2.38988607       0.00000000
Si      -2.68078016       0.05967027      -2.58209225       0.00000000
