10
Lattice="16.290000149 0.0 0.0 0.0 16.290000149 0.0 0.0 0.0 29.1751946751" Properties=species:S:1:pos:R:3:initial_magmoms:R:1 pbc="T T T"
Si       1.36301363       1.33017625       1.38013258       0.00000000
Si       1.35616206      -1.38712609      -1.33161424       0.00000000
Si      -1.34074846      -1.35259129       1.38675535       0.00000000
Si      -1.34876314       1.38508984      -1.36093531       0.00000000
Si      -2.69270444       2.68858307       0.06225987       0.00000000
Si       2.71047683       2.67691943       0.01187430       0.00000000
Si      -2.69825933      -2.70277166       0.03477683       0.00000000
Si       2.70137072      -0.06004494      -2.71553376       0.00000000
Si       0.01475874      -2.74229121      -2.70371489       0.00000000
Si      -2.70146846       0.05442489      -2.74540916       0.00000000
