10
Lattice="16.290000149 0.0 0.0 0.0 16.290000149 0.0 0.0 0.0 29.1751946751" Properties=species:S:1:pos:R:3:initial_magmoms:R:1 pbc="T T T"
Si       1.30235293       1.48315564      -1.26376469       0.00000000
Si       1.36575361      -1.36228384       1.37036473       0.00000000
Si      -1.38942298       1.35943309       1.36330141       0.00000000
Si      -1.18685683      -1.50770467      -1.40464267       0.00000000
H       -1.06132609      -0.99316873      -3.15430826       0.00000000
Si       2.62519868       0.06211377      -2.55224895       0.00000000
Si      -2.56330646      -0.06388938      -2.78238288       0.00000000
Si      -2.70510276      -2.69640227       0.00881966       0.00000000
Si       0.00949707      -2.67481802       2.77283676       0.00000000
Si       2.70969491       0.00501732       2.74004384       0.00000000
