10
Lattice="16.290000149 0.0 0.0 0.0 16.290000149 0.0 0.0 0.0 29.1751946751" Properties=species:S:1:pos:R:3:initial_magmoms:R:1 pbc="T T T"
Si      -1.37132479       1.35672895       1.33234362       0.00000000
Si      -1.37314927      -1.34718301      -1.34319679       0.00000000
Si       1.34925184       1.36469476      -1.35699665       0.00000000
Si       1.36915822      -1.34477209       1.36335685       0.00000000
Si      -0.00392589       2.71482626       2.66136126       0.00000000
Si      -0.01309716      -2.70420030      -2.68265915       0.00000000
Si       2.71935488      -2.69432693      -0.00977369       0.00000000
Si       2.72031599       0.01876608      -2.69508778       0.00000000
Si      -2.70332552       0.02230101      -2.71635650       0.00000000
Si      -2.71766072      -2.70264297       0.02214397       0.00000000
