10
Lattice="16.290000149 0.0 0.0 0.0 16.290000149 0.0 0.0 0.0 29.1751946751" Properties=species:S:1:pos:R:3:initial_magmoms:R:1 pbc="T T T"
Si       0.07141536       1.07386939       1.06375677       0.00000000
H        1.16037906       1.81631873      -1.92786769       0.00000000
Si      -2.45073278      -1.39375612      -1.02933004       0.00000000
H       -1.20518308      -2.16773801       1.74102974       0.00000000
Si      -0.45654354      -2.28036056      -2.00544453       0.00000000
Si      -1.54631197       0.39785067       2.62848081       0.00000000
Si       2.26466026       1.25680609       1.73563233       0.00000000
Si      -0.37875879       3.20614896       0.17411756       0.00000000
Si      -3.07877745      -0.32369859       1.01707646       0.00000000
Si       2.29671409       0.84810628      -2.21293852       0.00000000
