10
Lattice="16.290000149 0.0 0.0 0.0 16.290000149 0.0 0.0 0.0 29.1751946751" Properties=species:S:1:pos:R:3:initial_magmoms:R:1 pbc="T T T"
Si       1.53246547       0.72154927       1.61140435       0.00000000
Si      -1.21902958      -1.32133078       1.49482027       0.00000000
Si       0.62804467      -1.07005753      -2.04640650       0.00000000
Si      -1.48178728       1.87118345      -0.35345748       0.00000000
H        1.87359437      -1.84403942       0.72395328       0.00000000
H        3.07877745       0.32369859      -1.01707646       0.00000000
Si      -1.86691547       1.22622976      -2.57587794       0.00000000
Si       3.15019281       1.39756798       0.04668031       0.00000000
Si       0.30203289       2.57209328       2.27470240       0.00000000
Si      -2.54844020       0.22677309       2.65427169       0.00000000
