10
Lattice="16.290000149 0.0 0.0 0.0 16.290000149 0.0 0.0 0.0 29.1751946751" Properties=species:S:1:pos:R:3:initial_magmoms:R:1 pbc="T T T"
Si      -1.37292121       1.35907471       1.32143209       0.00000000
Si      -1.37391490      -1.36430380      -1.33158506       0.00000000
Si       1.35435061       1.37476198      -1.34240906       0.00000000
Si       1.35975889      -1.32540328       1.39121916       0.00000000
Si      -0.01298313       2.66704769       2.71119249       0.00000000
Si       2.68358204      -2.69638598       0.01791357       0.00000000
Si      -0.01326006      -2.71588511      -2.68440966       0.00000000
Si      -2.71463078       0.02612916       2.69400830       0.00000000
Si       2.70114266       0.02694366      -2.70935445       0.00000000
Si      -2.72991081       2.69364926      -0.05589967       0.00000000
