10
Lattice="16.290000149 0.0 0.0 0.0 16.290000149 0.0 0.0 0.0 29.1751946751" Properties=species:S:1:pos:R:3:initial_magmoms:R:1 pbc="T T T"
Si       1.29156895      -1.41291316       1.36061438       0.00000000
Si      -1.33253830       1.07022043       1.62106134       0.00000000
Si       1.31804020       1.32698341      -1.44212987       0.00000000
Si      -1.40962258      -1.36347301      -1.31962323       0.00000000
H       -2.51820596       1.58342059       0.82227369       0.00000000
Si       2.71487676       0.01961316       2.53345720       0.00000000
Si      -2.02481444      -0.79161256       3.03868405       0.00000000
Si      -0.34924131      -2.47213784       2.78833171       0.00000000
H       -1.88871149       3.24066747      -0.28244506       0.00000000
Si       2.60650754       2.73517248      -0.12128128       0.00000000
