10
Lattice="16.290000149 0.0 0.0 0.0 16.290000149 0.0 0.0 0.0 29.1751946751" Properties=species:S:1:pos:R:3:initial_magmoms:R:1 pbc="T T T"
Si       1.34778574       1.39560043      -1.31276414       0.00000000
Si      -1.32478426       1.35076681       1.38392536       0.00000000
Si      -1.33804432      -1.32504490      -1.40321600       0.00000000
Si       1.38398212      -1.35886294       1.33882051       0.00000000
Si       2.66944232      -0.09417249      -2.51840280       0.00000000
Si       2.70989039       2.67458996       0.09840793       0.00000000
Si       0.02015073      -2.72168435       2.66754640       0.00000000
Si      -2.71148681      -0.01024641       2.68767728       0.00000000
Si      -0.03487689       2.72108814      -2.67905601       0.00000000
Si       0.04753422      -2.67887423      -2.72540373       0.00000000
