10
Lattice="16.290000149 0.0 0.0 0.0 16.290000149 0.0 0.0 0.0 29.1751946751" Properties=species:S:1:pos:R:3:initial_magmoms:R:1 pbc="T T T"
Si       1.36666585      -1.35744571       1.32834661       0.00000000
Si       1.36857178       1.34408791      -1.34281751       0.00000000
Si      -1.34021089      -1.36314721      -1.36481561       0.00000000
Si      -1.31833342       1.36267480       1.39092741       0.00000000
Si      -0.01342296       2.69032610      -2.67895390       0.00000000
Si      -0.00920385      -2.68757309       2.68397203       0.00000000
Si       2.71542899       0.00426798       2.67647401       0.00000000
Si      -2.69876758      -2.71494029      -0.00204226       0.00000000
Si      -2.69140450      -0.00384444      -2.72391288       0.00000000
Si       2.71821458      -0.02111184      -2.69908479       0.00000000
