10
Lattice="16.290000149 0.0 0.0 0.0 16.290000149 0.0 0.0 0.0 29.1751946751" Properties=species:S:1:pos:R:3:initial_magmoms:R:1 pbc="T T T"
Si       1.35708733      -1.39265655      -1.29120659       0.00000000
Si       1.39235518       1.34332228       1.32960115       0.00000000
Si      -1.32453828      -1.38319532       1.36198561       0.00000000
Si      -1.29181493       1.35415513      -1.43203526       0.00000000
Si      -2.64415357       2.68011227      -0.02611180       0.00000000
Si       2.69998607      -0.05895351      -2.63938650       0.00000000
Si       0.03332934       2.69894351       2.68365111       0.00000000
Si      -2.65533714      -0.04204449      -2.74833835       0.00000000
Si      -2.70454727      -0.03484431       2.70261498       0.00000000
Si      -2.63907402      -2.76706830      -0.00067103       0.00000000
