10
Lattice="16.290000149 0.0 0.0 0.0 16.290000149 0.0 0.0 0.0 29.1751946751" Properties=species:S:1:pos:R:3:initial_magmoms:R:1 pbc="T T T"
Si      -1.23748615       1.36619344       1.41788529       0.00000000
Si       1.32289462      -1.37376829       1.33517361       0.00000000
Si       1.34940860       1.41076288      -1.30503563       0.00000000
Si      -1.38795688      -1.35842311      -1.33079733       0.00000000
H       -1.88385707       0.53991576       2.49485842       0.00000000
Si       2.61136196       0.03442077       2.65602220       0.00000000
Si      -2.81658990       2.45210114       0.09616144       0.00000000
Si      -0.08936694       2.76029166      -2.59204100       0.00000000
Si       2.68788749       0.04790889      -2.67822452       0.00000000
Si      -0.00449604      -2.70203861      -2.66670032       0.00000000
