10
Lattice="16.290000149 0.0 0.0 0.0 16.290000149 0.0 0.0 0.0 29.1751946751" Properties=species:S:1:pos:R:3:initial_magmoms:R:1 pbc="T T T"
Si       0.91554688      -0.75333106      -0.95732566       0.00000000
Si      -1.06139125       1.70007329       0.80668392       0.00000000
Si      -1.89524378      -0.29660832       1.90037590       0.00000000
Si      -1.30789153       2.21640113      -1.49280719       0.00000000
Si       2.30387599      -1.91073557       0.52719577       0.00000000
Si      -0.67139236      -1.88820650      -2.30180616       0.00000000
Si       2.07112691       0.88282027      -2.14198444       0.00000000
Si       0.88049080       2.54747909       1.87154206       0.00000000
Si      -0.47348514      -1.66382804       3.23880255       0.00000000
Si      -3.20113164      -1.74364904       0.53028834       0.00000000
