10
Lattice="16.290000149 0.0 0.0 0.0 16.290000149 0.0 0.0 0.0 29.1751946751" Properties=species:S:1:pos:R:3:initial_magmoms:R:1 pbc="T T T"
Si       1.35078310       1.38645820       1.32300755       0.00000000
Si      -1.33878063       1.35909100      -1.36300674       0.00000000
Si       1.38826639      -1.35078310      -1.33388990       0.00000000
Si      -1.35073586      -1.36541152       1.36373612       0.00000000
Si       2.66074346      -0.04106709       2.62019506       0.00000000
Si      -2.66655899       2.70822881       0.03232612       0.00000000
Si       0.04025259      -2.71261082      -2.68461389       0.00000000
Si      -2.69037497       0.00610875      -2.72423380       0.00000000
Si      -2.69306282      -2.72631071       0.00951111       0.00000000
Si       0.01977606       2.71088408      -2.72578009       0.00000000
