10
Lattice="16.290000149 0.0 0.0 0.0 16.290000149 0.0 0.0 0.0 29.1751946751" Properties=species:S:1:pos:R:3:initial_magmoms:R:1 pbc="T T T"
Si       1.35477415      -1.35843940       1.30334347       0.00000000
Si       1.37205784       1.25369470      -1.43209361       0.00000000
Si      -1.31044906      -1.42982218      -1.32294920       0.00000000
Si      -1.19852047       1.40240611       1.47521454       0.00000000
Si      -2.56833355       2.64135836       0.03042973       0.00000000
Si       2.72228708       2.59690295      -0.11993923       0.00000000
Si      -2.63942148      -0.07064973      -2.68855254       0.00000000
Si       2.74152557      -0.00579924       2.59600882       0.00000000
Si      -2.56642273      -0.02474451       2.77531957       0.00000000
Si       0.00837306      -2.66699882       2.69552541       0.00000000
