10
Lattice="10.86 0.0 0.0 0.0 10.86 0.0 0.0 0.0 10.86" Properties=species:S:1:pos:R:3:initial_magmoms:R:1 pbc="T T T"
Si       1.29239430      -1.11726594      -1.34497842       0.00000000
Si      -1.42260570      -1.11726594       1.37002158       0.00000000
Si       1.29239430       1.59773406       1.37002158       0.00000000
Si       2.64989430      -2.47476594       0.01252158       0.00000000
Si      -0.06510570      -2.47476594      -2.70247842       0.00000000
Si      -0.06510570      -2.47476594       2.72752158       0.00000000
Si      -2.78010570      -2.47476594       0.01252158       0.00000000
Si       2.64989430       0.24023406      -2.70247842       0.00000000
Si      -2.64913410       0.31635180      -2.69808012       0.00000000
Si       2.64989430       0.24023406       2.72752158       0.00000000
