10
Lattice="10.86 0.0 0.0 0.0 10.86 0.0 0.0 0.0 10.86" Properties=species:S:1:pos:R:3:initial_magmoms:R:1 pbc="T T T"
Si      -1.39767114       1.34582550       1.41449328       0.00000000
Si       1.29084132       1.46328726      -1.41823998       0.00000000
Si       1.09631700      -2.22791814       0.83158278       0.00000000
Si      -1.54950480      -1.56066888      -1.65874554       0.00000000
Si       2.60027496       2.65268532      -0.03261258       0.00000000
Si      -0.11472504       2.65268532       2.68238742       0.00000000
Si      -0.35292828      -2.75960202       2.55315342       0.00000000
Si       2.60027496      -0.06231468      -2.74761258       0.00000000
Si      -0.11472504       2.65268532      -2.74761258       0.00000000
Si      -2.82972504       2.65268532      -0.03261258       0.00000000
