10
Lattice="10.86 0.0 0.0 0.0 10.86 0.0 0.0 0.0 10.86" Properties=species:S:1:pos:R:3:initial_magmoms:R:1 pbc="T T T"
Si       1.42778592      -1.39826844      -1.28699688       0.00000000
Si      -1.28721408      -1.39826844       1.42800312       0.00000000
Si       1.42778592       1.31673156       1.42800312       0.00000000
Si      -1.59709332       1.63380012      -1.61316612       0.00000000
Si      -2.51065824       2.79312684       0.07838748       0.00000000
Si       0.07028592      -2.75576844      -2.64449688       0.00000000
Si      -2.64471408      -2.75576844       0.07050312       0.00000000
Si      -2.64471408      -0.04076844       2.78550312       0.00000000
Si      -2.79498390      -0.00267156      -2.64970968       0.00000000
Si       0.07028592       2.67423156       2.78550312       0.00000000
