10
Lattice="10.86 0.0 0.0 0.0 10.86 0.0 0.0 0.0 10.86" Properties=species:S:1:pos:R:3:initial_magmoms:R:1 pbc="T T T"
Si       1.32520236      -1.31240928      -1.16811246       0.00000000
Si       1.17534522       0.78654636       1.79784042       0.00000000
Si      -1.38979764       1.40259072      -1.16811246       0.00000000
Si      -1.38979764      -1.31240928       1.54688754       0.00000000
Si       2.54593152       2.55505392       0.31354992       0.00000000
Si       2.68725270      -2.47266996       0.27590916       0.00000000
Si      -0.03229764      -2.66990928      -2.52561246       0.00000000
Si       2.68270236       0.04509072      -2.52561246       0.00000000
Si      -2.74729764       0.04509072      -2.52561246       0.00000000
Si      -0.03229764       2.76009072      -2.52561246       0.00000000
