10
Lattice="10.86 0.0 0.0 0.0 10.86 0.0 0.0 0.0 10.86" Properties=species:S:1:pos:R:3:initial_magmoms:R:1 pbc="T T T"
Si       1.29401244       1.26019440       1.37936118       0.00000000
Si      -1.42098756       1.26019440      -1.33563882       0.00000000
Si       1.29401244      -1.45480560      -1.33563882       0.00000000
Si       2.65151244       2.61769440       0.02186118       0.00000000
Si      -0.06348756       2.61769440      -2.69313882       0.00000000
Si       2.65151244      -0.09730560      -2.69313882       0.00000000
Si      -0.02795364      -2.54858136       2.80071798       0.00000000
Si       2.65151244      -0.09730560       2.73686118       0.00000000
Si      -3.05435328       2.35647882       0.15863202       0.00000000
Si       2.65151244      -2.81230560       0.02186118       0.00000000
