10
Lattice="10.86 0.0 0.0 0.0 10.86 0.0 0.0 0.0 10.86" Properties=species:S:1:pos:R:3:initial_magmoms:R:1 pbc="T T T"
Si       1.35750000       1.35750000       1.35750000       0.00000000
Si      -1.35750000      -1.35750000       1.35750000       0.00000000
Si       1.35750000      -1.35750000      -1.35750000       0.00000000
Si      -1.35750000       1.35750000      -1.35750000       0.00000000
Si      -2.67946608      -2.45127576       0.06385680       0.00000000
Si       2.76165456       2.44614984      -0.06114180       0.00000000
Si      -2.55722592      -0.06636546       2.80744032       0.00000000
Si       2.41788126      -0.24127662      -2.92389210       0.00000000
Si      -2.65151244       0.09730560      -2.73686118       0.00000000
Si       0.00000000      -2.71500000       2.71500000       0.00000000
