10
Lattice="10.86 0.0 0.0 0.0 10.86 0.0 0.0 0.0 10.86" Properties=species:S:1:pos:R:3:initial_magmoms:R:1 pbc="T T T"
Si       1.43055522       1.13964840       1.25524224       0.00000000
Si      -1.28444478       1.13964840      -1.45975776       0.00000000
Si      -1.28444478      -1.57535160       1.25524224       0.00000000
Si       1.10336514      -2.03180826      -1.42049886       0.00000000
Si       0.07305522       2.49714840       2.61274224       0.00000000
Si      -2.64194478       2.49714840      -0.10225776       0.00000000
Si       0.11970978       2.22829824      -2.87839956       0.00000000
Si      -2.64194478      -0.21785160       2.61274224       0.00000000
Si       2.71303434       2.57068146      -0.08620668       0.00000000
Si       2.78805522      -0.21785160       2.61274224       0.00000000
