10
Lattice="10.86 0.0 0.0 0.0 10.86 0.0 0.0 0.0 10.86" Properties=species:S:1:pos:R:3:initial_magmoms:R:1 pbc="T T T"
Si      -1.28247912       1.28396694      -1.37355108       0.00000000
Si      -1.28247912      -1.43103306       1.34144892       0.00000000
Si       1.43252088       1.28396694       1.34144892       0.00000000
Si      -2.63997912       2.64146694      -0.01605108       0.00000000
Si      -2.71303434      -2.57068146       0.08620668       0.00000000
Si      -2.63997912      -0.07353306       2.69894892       0.00000000
Si       0.07502088       2.64146694       2.69894892       0.00000000
Si       0.07502088       2.64146694      -2.73105108       0.00000000
Si      -2.59332456      -0.34238322      -2.79219288       0.00000000
Si       2.79002088       2.64146694      -0.01605108       0.00000000
