10
Lattice="10.86 0.0 0.0 0.0 10.86 0.0 0.0 0.0 10.86" Properties=species:S:1:pos:R:3:initial_magmoms:R:1 pbc="T T T"
Si       1.19972592       1.42386546       1.26505968       0.00000000
Si       1.19972592      -1.29113454      -1.44994032       0.00000000
Si      -1.51527408      -1.29113454       1.26505968       0.00000000
Si      -0.12224016      -2.38491030      -2.74358352       0.00000000
Si       2.55722592       0.06636546       2.62255968       0.00000000
Si       2.55722592      -2.64863454      -0.09244032       0.00000000
Si      -0.15777408      -2.64863454       2.62255968       0.00000000
Si       2.55722592       2.78136546      -0.09244032       0.00000000
Si       2.55722592       0.06636546      -2.80744032       0.00000000
Si      -0.15777408       2.78136546       2.62255968       0.00000000
