10
Lattice="16.290000149 0.0 0.0 0.0 16.290000149 0.0 0.0 0.0 29.1751946751" Properties=species:S:1:pos:R:3:initial_magmoms:R:1 pbc="T T T"
Si       1.23110047      -1.53047809       1.23799104       0.00000000
Si      -1.39031893      -1.35115777      -1.29219855       0.00000000
Si      -1.05482638       1.46782675       1.48037855       0.00000000
Si       1.37756386       1.32020677      -1.35571295       0.00000000
Si       0.76217653       2.22552353       2.85733104       0.00000000
Si      -2.36314145       0.10852398       2.86690050       0.00000000
Si      -0.01462842       2.60418458      -2.71705670       0.00000000
Si      -0.02604771      -2.69716790      -2.62477556       0.00000000
Si      -2.49904892       2.82181899       0.19640741       0.00000000
Si      -2.73859338       0.00912240      -2.59778851       0.00000000
