10
Lattice="16.290000149 0.0 0.0 0.0 16.290000149 0.0 0.0 0.0 29.1751946751" Properties=species:S:1:pos:R:3:initial_magmoms:R:1 pbc="T T T"
Si       1.14546394       0.12709458      -2.06003132       0.00000000
Si      -0.91792522      -1.83484046       1.16980861       0.00000000
Si       1.56144538       0.78081229       1.59457026       0.00000000
Si      -1.93841228       1.48594123      -0.31687179       0.00000000
Si      -1.94856095      -0.34689555       2.64085110       0.00000000
H       -2.83346634       0.50409405       1.75334167       0.00000000
H        1.84914308      -2.84581416      -0.14249165       0.00000000
Si      -0.05071077       0.95423563       3.27284416       0.00000000
Si       2.38931948       2.71393520       0.57866081       0.00000000
Si       2.65758320       1.97990291      -1.62797586       0.00000000
