10
Lattice="16.290000149 0.0 0.0 0.0 16.290000149 0.0 0.0 0.0 29.1751946751" Properties=species:S:1:pos:R:3:initial_magmoms:R:1 pbc="T T T"
Si      -1.33799545       1.15417909       1.55674463       0.00000000
Si      -1.30834765      -1.44674749      -1.37006714       0.00000000
Si       1.42716691      -1.36674730       1.33445298       0.00000000
Si       0.83434123       1.99743095      -1.09126577       0.00000000
H        1.91293472       0.28455372      -1.88022460       0.00000000
Si      -0.91105084       3.53968671      -0.63819863       0.00000000
Si      -2.74426230       2.51786387       0.30244174       0.00000000
Si      -2.70645320      -0.02248020      -2.59548367       0.00000000
Si       0.08436591       2.61417035       2.78115461       0.00000000
Si      -2.63520074      -2.82970335       0.00507065       0.00000000
