10
Lattice="16.290000149 0.0 0.0 0.0 16.290000149 0.0 0.0 0.0 29.1751946751" Properties=species:S:1:pos:R:3:initial_magmoms:R:1 pbc="T T T"
Si       1.35581671       1.34053669      -1.31496979       0.00000000
Si       1.43298244      -1.31950630       1.28303754       0.00000000
Si      -1.33592662       1.44130663       1.28904763       0.00000000
Si      -1.30445434      -1.29503872      -1.47581847       0.00000000
Si      -0.05045013       2.70422147      -2.56927267       0.00000000
Si       0.05299137      -2.63682974       2.64697789       0.00000000
Si      -2.67147857      -2.64466523      -0.12478231       0.00000000
Si      -2.69938334       0.07969068       2.61876547       0.00000000
Si       2.77943241      -2.59853195      -0.17747271       0.00000000
Si       2.76833892       0.08478945       2.62109949       0.00000000
