10
Lattice="16.290000149 0.0 0.0 0.0 16.290000149 0.0 0.0 0.0 29.1751946751" Properties=species:S:1:pos:R:3:initial_magmoms:R:1 pbc="T T T"
Si      -1.34141635       1.35570268       1.34442010       0.00000000
Si       1.39810555      -1.42426729       1.22541653       0.00000000
Si       1.39444030       1.23207787      -1.42666702       0.00000000
Si      -1.50397426      -1.28532988      -1.28680114       0.00000000
H        0.50953491       2.08306748      -2.31417644       0.00000000
Si       2.70645320       0.02248020       2.59548367       0.00000000
Si      -2.55594989       2.77102677      -0.10529328       0.00000000
Si      -2.66312180      -0.04559571       2.68876844       0.00000000
Si       2.42507603      -0.25586703      -2.89770951       0.00000000
Si       0.07125246      -2.80722315       2.60055432       0.00000000
