10
Lattice="16.290000149 0.0 0.0 0.0 16.290000149 0.0 0.0 0.0 29.1751946751" Properties=species:S:1:pos:R:3:initial_magmoms:R:1 pbc="T T T"
Si      -1.30367242       1.38238570      -1.37152590       0.00000000
Si       1.38096033       1.36836001       1.32414539       0.00000000
Si       1.39914485      -1.33808831      -1.34357607       0.00000000
Si      -1.38939040      -1.33783092       1.37453095       0.00000000
Si       0.07433127      -2.64337588       2.63735007       0.00000000
Si      -2.67703346      -0.00244350      -2.67874967       0.00000000
Si      -2.62674623       2.75318922       0.00239237       0.00000000
Si       0.02733462      -2.70962975      -2.67215608       0.00000000
Si      -2.62115876       0.09555714       2.78923614       0.00000000
Si       2.72367173       0.03345966       2.70144798       0.00000000
