10
Lattice="16.290000149 0.0 0.0 0.0 16.290000149 0.0 0.0 0.0 29.1751946751" Properties=species:S:1:pos:R:3:initial_magmoms:R:1 pbc="T T T"
H       -0.17948322       1.38779561       0.60984909       0.00000000
Si       0.83303803      -1.24460325       1.71314701       0.00000000
Si       1.89605828       0.01711753      -1.33747845       0.00000000
Si      -1.89920225      -0.54938188      -1.28683031       0.00000000
Si       0.64418806       1.12692755      -2.93998437       0.00000000
Si      -2.62679510       1.64001368      -0.87934037       0.00000000
Si      -0.69296032       2.67156165      -1.78759335       0.00000000
Si       1.87235633       0.61021526       2.66366318       0.00000000
Si       2.32992614      -2.27356111      -1.03881198       0.00000000
Si      -1.00017343      -2.26642609       2.65378738       0.00000000
