10
Lattice="16.290000149 0.0 0.0 0.0 16.290000149 0.0 0.0 0.0 29.1751946751" Properties=species:S:1:pos:R:3:initial_magmoms:R:1 pbc="T T T"
Si      -1.34690608      -1.35681040      -1.36262747       0.00000000
Si      -1.36961434       1.36365220       1.33610722       0.00000000
Si       1.35125551       1.37588599      -1.34646441       0.00000000
Si       1.34610787      -1.35902584       1.36875426       0.00000000
Si      -0.00509877       2.71868699       2.68414709       0.00000000
Si      -2.70744689      -2.70122411       0.00933606       0.00000000
Si      -2.69944850       0.01045818      -2.71901144       0.00000000
Si       0.03091842      -2.70562241      -2.71323475       0.00000000
Si       2.77053807       0.04548168      -2.64817407       0.00000000
Si       2.71669961      -2.70490565       0.03031303       0.00000000
