10
Lattice="16.290000149 0.0 0.0 0.0 16.290000149 0.0 0.0 0.0 29.1751946751" Properties=species:S:1:pos:R:3:initial_magmoms:R:1 pbc="T T T"
Si      -0.93540439       1.04117536      -1.83476964       0.00000000
Si       1.07623144       1.75845665       1.06136441       0.00000000
Si       1.33714837      -1.54463410      -1.15239101       0.00000000
Si      -1.93383479      -1.03154797       0.90825299       0.00000000
H        0.51347709      -1.28376604       2.39744245       0.00000000
Si       0.69296032      -2.67156165       1.78759335       0.00000000
Si      -1.69249844      -1.00968679      -2.71408084       0.00000000
Si      -0.46737639      -2.87704372      -1.75964352       0.00000000
Si      -2.23049198       2.53532675      -0.50928220       0.00000000
Si      -1.20624193      -3.22094354       0.50076304       0.00000000
