10
Lattice="16.290000149 0.0 0.0 0.0 16.290000149 0.0 0.0 0.0 29.1751946751" Properties=species:S:1:pos:R:3:initial_magmoms:R:1 pbc="T T T"
H        1.28549278       0.55825831       0.92852975       0.00000000
Si       1.23838210      -1.84834487      -0.66691578       0.00000000
Si      -1.03307923       1.33957558      -1.61029569       0.00000000
Si      -1.78802300      -0.58329604       1.44557255       0.00000000
H        0.95659768       1.23839839      -2.66760475       0.00000000
Si      -2.10274580       2.44799606       0.25618738       0.00000000
Si      -1.80415010      -0.70136596      -2.61899888       0.00000000
Si       2.47187720       1.09151146       1.98079149       0.00000000
Si      -0.30871179      -2.56422521      -2.26627077       0.00000000
Si      -2.86425444      -2.34175268       0.38420814       0.00000000
