10
Lattice="16.290000149 0.0 0.0 0.0 16.290000149 0.0 0.0 0.0 29.1751946751" Properties=species:S:1:pos:R:3:initial_magmoms:R:1 pbc="T T T"
Si       1.37430586       1.34206795      -1.34340101       0.00000000
Si       1.36199062      -1.39447288       1.30468553       0.00000000
Si      -1.35474157      -1.35329176      -1.36035180       0.00000000
Si      -1.35215146       1.36977724       1.35104492       0.00000000
Si       0.00597843       2.69063561      -2.68496399       0.00000000
Si       2.78115915      -0.08376318       2.61864877       0.00000000
Si      -2.74097171       0.01018125       2.66451218       0.00000000
Si       0.01330893      -2.75253762       2.65803529       0.00000000
Si       0.01451439      -2.73196334      -2.68321348       0.00000000
Si       0.02335986       2.73598698       2.68861089       0.00000000
