10
Lattice="16.290000149 0.0 0.0 0.0 16.290000149 0.0 0.0 0.0 29.1751946751" Properties=species:S:1:pos:R:3:initial_magmoms:R:1 pbc="T T T"
Si      -1.43949844       1.20803383      -1.37960743       0.00000000
Si       1.11905785      -1.44285418      -1.46299014       0.00000000
Si      -1.48499641      -1.13704201       1.41435509       0.00000000
Si       1.49377672       1.32887305       1.30885758       0.00000000
H        0.02744865      -2.61138476       0.73393120       0.00000000
H       -2.61388039      -0.14748966       1.65863899       0.00000000
H        2.05636817      -2.35287875      -0.70466848       0.00000000
Si      -0.16786845      -1.03368196       3.44322730       0.00000000
Si      -0.07618833       2.63448398      -2.67979998       0.00000000
Si       2.46659924      -0.13080870      -2.85024147       0.00000000
