10
Lattice="16.290000149 0.0 0.0 0.0 16.290000149 0.0 0.0 0.0 29.1751946751" Properties=species:S:1:pos:R:3:initial_magmoms:R:1 pbc="T T T"
Si       0.81334342      -0.98544727      -1.94350559       0.00000000
Si      -1.33162606      -1.33180525       1.39854213       0.00000000
Si       1.59265702       1.13047714       1.34062937       0.00000000
Si      -1.50345298       1.30958569      -1.29497019       0.00000000
H        1.26361531       0.29861199      -2.60727045       0.00000000
H        0.69085891       1.87248665       2.31799839       0.00000000
Si      -2.53408871       2.79753060       0.17607230       0.00000000
Si      -1.06523569      -1.69461614      -3.21688614       0.00000000
Si      -2.53042346       0.14118543       2.82815585       0.00000000
Si      -2.89761636      -2.45646686      -0.06873676       0.00000000
