10
Lattice="16.290000149 0.0 0.0 0.0 16.290000149 0.0 0.0 0.0 29.1751946751" Properties=species:S:1:pos:R:3:initial_magmoms:R:1 pbc="T T T"
Si      -1.34835656      -1.35340579       1.35603387       0.00000000
Si      -1.36881680       1.35677782      -1.33981247       0.00000000
Si       1.33039061      -1.34962651      -1.39060648       0.00000000
Si       1.31456651       1.36485766       1.39495358       0.00000000
Si       0.02992488       2.69140124      -2.67405247       0.00000000
Si       2.68185464      -2.70892928      -0.03162591       0.00000000
Si      -2.69317752       0.00939933       2.70766229       0.00000000
Si       2.69021141       2.71388144       0.04522155       0.00000000
Si      -2.71917636      -2.70242957       0.00247989       0.00000000
Si       2.70394388       0.01510083       2.72440885       0.00000000
