10
Lattice="16.290000149 0.0 0.0 0.0 16.290000149 0.0 0.0 0.0 29.1751946751" Properties=species:S:1:pos:R:3:initial_magmoms:R:1 pbc="T T T"
Si       1.42832350      -1.22952034      -1.28545908       0.00000000
Si      -1.23110047       1.53047809      -1.23799104       0.00000000
Si       1.49037211       1.01353123       1.46759982       0.00000000
Si      -1.12391227      -1.44365239       1.54821088       0.00000000
H        2.07286994      -2.07107804      -0.20612275       0.00000000
Si      -1.98441524       0.34267644       2.82862265       0.00000000
Si      -0.11854233       1.80050114       2.98240510       0.00000000
Si       2.46247787      -0.84515779       2.36855900       0.00000000
Si      -0.01591533      -2.55806759      -2.49220348       0.00000000
Si       0.69455674      -2.32990985       2.70144798       0.00000000
