10
Lattice="16.290000149 0.0 0.0 0.0 16.290000149 0.0 0.0 0.0 29.1751946751" Properties=species:S:1:pos:R:3:initial_magmoms:R:1 pbc="T T T"
H        0.68341438       0.05890464       1.34494730       0.00000000
H       -1.42387633       0.82665235       1.65131602       0.00000000
Si       1.60891444      -0.78696991      -1.51480528       0.00000000
Si      -1.86587291      -1.45782469      -0.15378245       0.00000000
Si      -0.35038161       1.95550049      -1.36306510       0.00000000
H        1.84811681       1.70649155       0.21601314       0.00000000
H        2.50624910       1.29451744       0.25700429       0.00000000
Si      -0.81940330       0.92250271       3.05169619       0.00000000
Si       0.11854233      -1.80050114      -2.98240510       0.00000000
Si      -1.00536994      -3.24415353      -1.43419422       0.00000000
