10
Lattice="16.290000149 0.0 0.0 0.0 16.290000149 0.0 0.0 0.0 29.1751946751" Properties=species:S:1:pos:R:3:initial_magmoms:R:1 pbc="T T T"
Si      -1.43422048       1.34645974      -1.26136037       0.00000000
Si      -1.37981188      -1.34385985       1.33461928       0.00000000
Si       1.34648254       1.38781516       1.33949154       0.00000000
Si       1.35391078      -1.32910111      -1.40116790       0.00000000
Si      -0.10002060       2.68661198      -2.58949108       0.00000000
Si      -0.01148445      -2.69242751       2.67618226       0.00000000
Si       2.69969285      -2.67398723      -0.03547704       0.00000000
Si       2.70589934       0.03446964       2.69219944       0.00000000
Si      -2.73028547       0.03284064       2.68295090       0.00000000
Si      -0.06845058      -2.78909238      -2.62557788       0.00000000
