10
Lattice="16.290000149 0.0 0.0 0.0 16.290000149 0.0 0.0 0.0 29.1751946751" Properties=species:S:1:pos:R:3:initial_magmoms:R:1 pbc="T T T"
Si       1.42478857       1.39088908       1.17961147       0.00000000
Si      -1.32010903       1.44081793      -1.27574374       0.00000000
Si       1.43417161      -1.32190093      -1.28222063       0.00000000
Si      -1.38336310      -1.33651306       1.34039597       0.00000000
Si       0.05665662      -2.66180231      -2.61450590       0.00000000
Si      -2.66908394       0.07905537      -2.62384196       0.00000000
Si       0.00882918      -2.62049087       2.70173973       0.00000000
Si      -2.56534922       0.11559384       2.75270879       0.00000000
Si       2.72026712       0.09642051       2.60502396       0.00000000
Si       0.06871122       2.80041393      -2.58921100       0.00000000
