10
Lattice="16.290000149 0.0 0.0 0.0 16.290000149 0.0 0.0 0.0 29.1751946751" Properties=species:S:1:pos:R:3:initial_magmoms:R:1 pbc="T T T"
Si      -1.32931581       1.40949226      -1.31092902       0.00000000
Si       1.33562395       1.37663533       1.34430544       0.00000000
Si       1.35051627      -1.32629923      -1.40639026       0.00000000
Si      -1.38479955      -1.33118623       1.36840416       0.00000000
Si      -2.71934153       0.06442695      -2.58629640       0.00000000
Si       2.64464601      -2.67913487       0.02552830       0.00000000
Si       2.67869211       0.01951542       2.70859590       0.00000000
Si       2.66652348       2.73507474      -0.03830703       0.00000000
Si      -0.05338526       2.73702954       2.66664197       0.00000000
Si      -2.75294780      -2.68001453       0.03031303       0.00000000
