10
Lattice="16.290000149 0.0 0.0 0.0 16.290000149 0.0 0.0 0.0 29.1751946751" Properties=species:S:1:pos:R:3:initial_magmoms:R:1 pbc="T T T"
Si      -1.35091342      -1.34260552      -1.31195015       0.00000000
Si       1.39219228      -1.28397781       1.36134376       0.00000000
Si       1.38336310       1.33651306      -1.34039597       0.00000000
Si      -1.18198612       1.45210690       1.41231282       0.00000000
Si       2.27131472       0.60789394       2.42685104       0.00000000
Si       0.67038238       2.38628954       2.52038672       0.00000000
Si      -2.66118329       0.08459397      -2.60887508       0.00000000
Si       0.08630442      -2.67691943      -2.59320800       0.00000000
Si       0.01462842      -2.60418458       2.71705670       0.00000000
Si      -2.72396495      -2.59506218       0.11926820       0.00000000
