10
Lattice="16.290000149 0.0 0.0 0.0 16.290000149 0.0 0.0 0.0 29.1751946751" Properties=species:S:1:pos:R:3:initial_magmoms:R:1 pbc="T T T"
Si      -1.35062020      -1.28660050       1.36971704       0.00000000
Si       1.25369470       1.31861198       1.47153847       0.00000000
Si       1.36664956      -1.36984240      -1.34345936       0.00000000
Si      -1.42043914       1.36203949      -1.30465636       0.00000000
Si       2.41913018       2.75532321      -0.03603137       0.00000000
Si       2.71195922       0.00586440      -2.65806446       0.00000000
Si      -0.03823263      -2.69659775      -2.70258581       0.00000000
Si      -0.11060910       2.71023248      -2.72461308       0.00000000
Si      -2.75358018      -2.68920209       0.06940779       0.00000000
Si      -2.76239307       0.01386279      -2.69289964       0.00000000
