10
Lattice="16.290000149 0.0 0.0 0.0 16.290000149 0.0 0.0 0.0 29.1751946751" Properties=species:S:1:pos:R:3:initial_magmoms:R:1 pbc="T T T"
Si      -1.35581671      -1.34053669       1.31496979       0.00000000
Si      -1.40626684       1.36368478      -1.25430289       0.00000000
Si       1.33799545      -1.15417909      -1.55674463       0.00000000
Si       1.42236136       1.45999126       1.22440998       0.00000000
Si       0.42694461       2.38550762      -2.19494326       0.00000000
Si       2.17233668       0.84325186      -2.64801040       0.00000000
Si       0.07716573      -2.66004299       2.59800732       0.00000000
Si      -2.69174333       0.10076994       2.60401741       0.00000000
Si      -2.66027105      -2.63557541      -0.16084868       0.00000000
Si       2.76516237      -2.52092639      -0.22229164       0.00000000
