10
Lattice="16.290000149 0.0 0.0 0.0 16.290000149 0.0 0.0 0.0 29.1751946751" Properties=species:S:1:pos:R:3:initial_magmoms:R:1 pbc="T T T"
Si       1.35369901       1.35281935      -1.33794525       0.00000000
Si       1.39615075      -1.45005436       1.19268196       0.00000000
Si      -1.37551132      -1.36620973      -1.33756598       0.00000000
Si      -1.30494304       1.34467435       1.43285216       0.00000000
Si      -0.01943397      -2.77573458       2.43125650       0.00000000
Si       2.65917962       2.66788989       0.10529328       0.00000000
Si      -0.01853802       2.70102701      -2.67396494       0.00000000
Si       2.70791930      -0.03096729      -2.67454845       0.00000000
Si      -2.70205490       2.68623569       0.06961201       0.00000000
Si      -2.65025270      -0.03103245       2.74745726       0.00000000
