10
Lattice="16.290000149 0.0 0.0 0.0 16.290000149 0.0 0.0 0.0 29.1751946751" Properties=species:S:1:pos:R:3:initial_magmoms:R:1 pbc="T T T"
H       -0.55128618       1.33848415      -0.44238348       0.00000000
Si      -0.81878428      -1.69443695      -1.39124833       0.00000000
Si       2.32857407       0.06094089      -0.34082462       0.00000000
Si      -0.72539371      -0.59763286       2.16421594       0.00000000
H       -2.36226831       0.22641471       0.30899449       0.00000000
H        1.47763333       1.59699016      -1.88098315       0.00000000
Si       2.39770883      -1.99866899       0.95044032       0.00000000
Si      -2.19104737      -0.24613702      -2.57354392       0.00000000
Si      -2.06373125       2.81282691       0.23804041       0.00000000
Si      -3.30545313       0.95456143      -0.79508241       0.00000000
