10
Lattice="16.290000149 0.0 0.0 0.0 16.290000149 0.0 0.0 0.0 29.1751946751" Properties=species:S:1:pos:R:3:initial_magmoms:R:1 pbc="T T T"
Si       1.35883525       1.35503479      -1.35019883       0.00000000
Si       1.36981471      -1.33692031       1.36321097       0.00000000
Si      -1.34207051       1.36029646       1.36992127       0.00000000
Si      -1.34954018      -1.37244880      -1.35393326       0.00000000
Si       2.66786708      -2.69470811      -0.05487854       0.00000000
Si      -2.69009316      -0.04522104       2.68242575       0.00000000
Si      -0.03054212       2.70479162      -2.67965411       0.00000000
Si      -2.69346519      -0.01347183      -2.71857382       0.00000000
Si       2.67729899      -0.00728163      -2.74039686       0.00000000
Si      -2.69693496      -2.73745307       0.00889843       0.00000000
