10
Lattice="16.290000149 0.0 0.0 0.0 16.290000149 0.0 0.0 0.0 29.1751946751" Properties=species:S:1:pos:R:3:initial_magmoms:R:1 pbc="T T T"
Si      -0.07517835      -0.88837516      -1.23714496       0.00000000
H       -1.71323561       1.91910863      -0.38353711       0.00000000
Si       0.63763948      -0.31594455       2.55099150       0.00000000
Si       2.50251869       0.57311479       1.27180509       0.00000000
H        1.41380911       2.50605362      -1.18384187       0.00000000
Si       0.73857232      -3.00697113      -0.47497217       0.00000000
Si      -1.07507485       1.32040225       2.64531490       0.00000000
Si       0.97181254       0.22157658      -2.98894034       0.00000000
Si      -2.29965932      -0.84465280      -2.05428381       0.00000000
Si       0.59562757      -2.61011414       1.88337552       0.00000000
