10
Lattice="16.290000149 0.0 0.0 0.0 16.290000149 0.0 0.0 0.0 29.1751946751" Properties=species:S:1:pos:R:3:initial_magmoms:R:1 pbc="T T T"
Si       1.30909699      -1.42371343      -1.30013887       0.00000000
Si       1.41402088       1.29453373       1.34305791       0.00000000
Si      -1.29950218      -1.48631590       1.27231682       0.00000000
Si      -1.27804825       1.49578039      -1.34016724       0.00000000
Si       2.57316842       0.05479956      -2.63251166       0.00000000
Si      -2.68389155      -0.11507256       2.62329463       0.00000000
Si       0.03184695       2.65036673       2.66727332       0.00000000
Si      -2.63906147       0.15182280      -2.68108836       0.00000000
Si      -0.07367967      -2.44415162      -2.93100308       0.00000000
Si      -2.72391608       2.68757309       0.01763495       0.00000000
