10
Lattice="16.290000149 0.0 0.0 0.0 16.290000149 0.0 0.0 0.0 29.1751946751" Properties=species:S:1:pos:R:3:initial_magmoms:R:1 pbc="T T T"
Si      -1.34195392      -1.34817670      -1.38824329       0.00000000
Si       1.30983004       1.34819299      -1.41995672       0.00000000
Si       1.42043914      -1.36203949       1.30465636       0.00000000
Si      -1.42372972       1.36260964       1.32507899       0.00000000
Si       0.06981894      -2.64863999       2.67437340       0.00000000
Si      -2.67736578      -2.70728399      -0.02433211       0.00000000
Si       2.59833647       2.78466150      -0.10193813       0.00000000
Si      -0.11347614       2.81862615       2.61789022       0.00000000
Si       2.67413384      -0.04342751       2.77619482       0.00000000
Si       2.73528651      -0.01461376      -2.71664825       0.00000000
