10
Lattice="16.290000149 0.0 0.0 0.0 16.290000149 0.0 0.0 0.0 29.1751946751" Properties=species:S:1:pos:R:3:initial_magmoms:R:1 pbc="T T T"
Si       1.38217393      -1.35583300      -1.32421541       0.00000000
Si       1.33721353       1.32440959       1.40455806       0.00000000
Si      -1.35316144      -1.39820329       1.31962907       0.00000000
Si      -1.32867757       1.39527109      -1.36952448       0.00000000
Si      -0.03184695      -2.65036673      -2.66727332       0.00000000
Si      -2.65869092       2.71002071       0.04938777       0.00000000
Si       2.70387938       0.04546539      -2.66856374       0.00000000
Si      -2.70487307      -0.02860524       2.67782190       0.00000000
Si      -2.75576304       0.03720636      -2.64963837       0.00000000
Si       2.68737761       2.71890465       0.09392662       0.00000000
