10
Lattice="16.290000149 0.0 0.0 0.0 16.290000149 0.0 0.0 0.0 29.1751946751" Properties=species:S:1:pos:R:3:initial_magmoms:R:1 pbc="T T T"
Si       1.34679205       1.33305958       1.38852629       0.00000000
Si       1.33059979      -1.43995456      -1.31400117       0.00000000
Si      -1.34154667      -1.41814225       1.35978872       0.00000000
Si      -1.42716691       1.36674730      -1.33445298       0.00000000
H        0.48576780       1.65130103      -3.21467758       0.00000000
Si      -2.76516237       2.52092639       0.22229164       0.00000000
Si       2.64982916       2.68710068      -0.04553956       0.00000000
Si      -2.73551457      -0.08000019      -2.70452012       0.00000000
Si      -0.06483420      -2.76179034      -2.67881678       0.00000000
Si       2.69501762      -0.05201397       2.75019097       0.00000000
