10
Lattice="16.290000149 0.0 0.0 0.0 16.290000149 0.0 0.0 0.0 29.1751946751" Properties=species:S:1:pos:R:3:initial_magmoms:R:1 pbc="T T T"
Si      -0.68341438      -0.05890464      -1.34494730       0.00000000
H       -2.10729071       0.76774771       0.30636872       0.00000000
H        1.16470243       1.64758691      -1.12893416       0.00000000
Si      -1.50281767       0.86359807       1.70674889       0.00000000
H        1.82283473       1.23561280      -1.08794301       0.00000000
Si       0.27650646      -2.65934252       1.43652824       0.00000000
Si       2.27201519      -2.06013116       0.26809086       0.00000000
Si       0.92550007      -0.84587455      -2.85975258       0.00000000
Si       0.40180914       2.36262017       2.01696873       0.00000000
Si      -1.01858113      -1.16519113       2.76201568       0.00000000
