10
Lattice="16.290000149 0.0 0.0 0.0 16.290000149 0.0 0.0 0.0 29.1751946751" Properties=species:S:1:pos:R:3:initial_magmoms:R:1 pbc="T T T"
Si       1.29652111       1.28400143       1.50704468       0.00000000
Si      -1.33625242      -1.36394135       1.40826914       0.00000000
Si       1.48177099      -1.29842297      -1.34048349       0.00000000
Si      -1.35641944       1.38663006      -1.39883388       0.00000000
Si      -0.00649971      -2.54710035      -2.71831124       0.00000000
Si      -2.60822450       2.73048503       0.08598192       0.00000000
Si       2.69630453      -2.71374705       0.10922989       0.00000000
Si       2.37329012       2.37733411      -1.87039256       0.00000000
Si       2.28591056       3.07239584       0.35745157       0.00000000
Si       0.16974180       2.76097991      -2.67635731       0.00000000
