10
Lattice="16.290000149 0.0 0.0 0.0 16.290000149 0.0 0.0 0.0 29.1751946751" Properties=species:S:1:pos:R:3:initial_magmoms:R:1 pbc="T T T"
Si       1.34428339      -1.33051834      -1.38658030       0.00000000
Si      -1.36257706       1.33999912      -1.36361942       0.00000000
Si      -1.35189082      -1.39072618       1.32782146       0.00000000
Si       1.37081980       1.34902378       1.35355398       0.00000000
Si      -2.73044837      -0.04412961       2.65015798       0.00000000
Si      -2.69793353      -0.06429663      -2.70168138       0.00000000
Si       2.68934870      -2.71251308      -0.03328890       0.00000000
Si      -2.71813313       2.69241122       0.00207144       0.00000000
Si       0.02599884       2.71182890       2.70518240       0.00000000
Si      -0.00695583       2.71085150      -2.70958785       0.00000000
