10
Lattice="16.290000149 0.0 0.0 0.0 16.290000149 0.0 0.0 0.0 29.1751946751" Properties=species:S:1:pos:R:3:initial_magmoms:R:1 pbc="T T T"
H       -0.65813230       0.41197410      -0.04099115       0.00000000
Si       1.98296543       0.61546879       1.08307075       0.00000000
H       -1.82283473      -1.23561280       1.08794301       0.00000000
Si       0.75411298      -0.54804448      -2.50046006       0.00000000
Si       0.20181681       2.16259526       1.71570567       0.00000000
Si      -2.50624910      -1.29451744      -0.25700429       0.00000000
Si      -0.89733466      -2.08148735      -1.77180957       0.00000000
Si       2.61812882       0.28373922      -1.24461380       0.00000000
Si       1.22025133      -1.25480242       2.36473705       0.00000000
Si      -0.73425547       1.24866109      -2.61929063       0.00000000
