10
Lattice="16.290000149 0.0 0.0 0.0 16.290000149 0.0 0.0 0.0 29.1751946751" Properties=species:S:1:pos:R:3:initial_magmoms:R:1 pbc="T T T"
Si       1.34835656       1.35340579      -1.35603387       0.00000000
Si      -1.34482096       1.36280512       1.35162842       0.00000000
Si       1.34392501      -1.35897697       1.36464056       0.00000000
Si      -1.37081980      -1.34902378      -1.35355398       0.00000000
Si      -2.68209965      -0.08244369       2.61056724       0.00000000
Si       2.67183044      -2.70928766      -0.02748303       0.00000000
Si       2.66292307       2.71826345       0.03891971       0.00000000
Si      -0.02046024       2.71018361      -2.69584634       0.00000000
Si       2.69346519       0.01347183       2.71857382       0.00000000
Si      -0.02653641      -2.67954212      -2.74013428       0.00000000
