10
Lattice="16.290000149 0.0 0.0 0.0 16.290000149 0.0 0.0 0.0 29.1751946751" Properties=species:S:1:pos:R:3:initial_magmoms:R:1 pbc="T T T"
Si      -1.35140212      -1.34851879       1.36137293       0.00000000
Si       1.32307381      -1.37080351      -1.37391827       0.00000000
Si      -1.35985663       1.32535441      -1.38862257       0.00000000
Si       1.34219827       1.34309422       1.39477853       0.00000000
Si       2.62674623      -2.75318922      -0.00239237       0.00000000
Si       2.70260876       2.68470605       0.00586421       0.00000000
Si      -2.73268011       2.68291415      -0.06520656       0.00000000
Si      -2.73235430       0.00324171       2.68831914       0.00000000
Si       2.67846698      -0.02301777      -2.74541499       0.00000000
Si      -0.00609246       2.69944850      -2.73167348       0.00000000
