10
Lattice="16.290000149 0.0 0.0 0.0 16.290000149 0.0 0.0 0.0 29.1751946751" Properties=species:S:1:pos:R:3:initial_magmoms:R:1 pbc="T T T"
Si      -1.36345672      -1.36161595       1.32971785       0.00000000
Si       1.33592662      -1.44130663      -1.28904763       0.00000000
Si      -1.38479662       1.35721765      -1.33870381       0.00000000
Si       1.38038203       1.34446258       1.35617975       0.00000000
Si       2.69174333      -0.10076994      -2.60401741       0.00000000
Si       0.01966203      -2.69946479       2.68079194       0.00000000
Si      -2.71337645       0.00333945       2.68519739       0.00000000
Si      -0.03463254       2.75171271      -2.64933524       0.00000000
Si      -2.69840594      -2.71254566      -0.06453553       0.00000000
Si      -2.70881525       2.70871751       0.04571753       0.00000000
