10
Lattice="16.290000149 0.0 0.0 0.0 16.290000149 0.0 0.0 0.0 29.1751946751" Properties=species:S:1:pos:R:3:initial_magmoms:R:1 pbc="T T T"
Si       1.30367242      -1.38238570       1.37152590       0.00000000
Si      -1.37336104      -1.38482920      -1.30722377       0.00000000
Si      -1.32307381       1.37080351       1.37391827       0.00000000
Si       1.35539317       1.34778574      -1.37149673       0.00000000
Si      -2.68293044       2.69615792      -0.01470430       0.00000000
Si       2.68463275      -0.01402569       2.69567129       0.00000000
Si      -2.69674436      -0.01956429      -2.69847211       0.00000000
Si      -0.00122175      -2.72465402      -2.67142670       0.00000000
Si       2.69817300       2.71072118      -0.02033511       0.00000000
Si      -2.67447593       0.02228472       2.73529120       0.00000000
