10
Lattice="16.290000149 0.0 0.0 0.0 16.290000149 0.0 0.0 0.0 29.1751946751" Properties=species:S:1:pos:R:3:initial_magmoms:R:1 pbc="T T T"
Si       1.32010903      -1.44081793       1.27574374       0.00000000
Si      -1.34897491      -1.36176256      -1.34809822       0.00000000
Si       1.38882025       1.35959599      -1.31346726       0.00000000
Si      -1.29080332       1.36801792       1.41242952       0.00000000
Si       2.74489761      -0.04992885       2.45535521       0.00000000
Si       0.02067201       2.70112637      -2.66871341       0.00000000
Si      -2.66203037       2.71829603       0.06258079       0.00000000
Si      -2.71500545      -0.00531054      -2.67825370       0.00000000
Si      -0.06325407      -2.77733100       2.61613971       0.00000000
Si       2.74097171      -0.01018125      -2.66451218       0.00000000
