10
Lattice="16.290000149 0.0 0.0 0.0 16.290000149 0.0 0.0 0.0 29.1751946751" Properties=species:S:1:pos:R:3:initial_magmoms:R:1 pbc="T T T"
Si      -1.37181023      -1.37154145      -1.32858002       0.00000000
Si       1.34716998       1.35560006      -1.37421002       0.00000000
Si       1.40630268      -1.33923838       1.33170176       0.00000000
Si      -1.39914485       1.33808831       1.34357607       0.00000000
Si      -0.01818453       2.70644832       2.66772145       0.00000000
Si       0.07089082      -2.69834567       2.69561294       0.00000000
Si      -2.70403903      -0.00418001      -2.69937654       0.00000000
Si      -0.00158013      -2.71095413      -2.70792487       0.00000000
Si      -2.70281728       2.72047401      -0.02794984       0.00000000
Si       2.70482746       2.72365056      -0.03906559       0.00000000
