10
Lattice="16.28999089631971 0.0 0.0 0.0 16.28999089631971 0.0 0.0 0.0 34.48637585096406" Properties=species:S:1:pos:R:3:initial_magmoms:R:1 pbc="T T T"
Si      -1.75029534      -0.63184023      -1.58133916       0.00000000
Si      -2.09723976       0.21897018       1.30151655       0.00000000
Si      -0.60054714       2.13962634       1.31300052       0.00000000
Si       0.99649188       2.03395311      -1.59892722       0.00000000
Si       2.02720905      -0.94185522       1.88885435       0.00000000
Si       2.73582405      -2.09437272      -0.25857899       0.00000000
Si      -1.46054511      -1.35597960       2.85661157       0.00000000
Si      -3.35025027      -1.48579461       0.03548650       0.00000000
Si      -0.33891345      -1.98388254      -3.12132914       0.00000000
Si       1.12602996      -3.24866746      -1.61489442       0.00000000
