10
Lattice="16.28999089631971 0.0 0.0 0.0 16.28999089631971 0.0 0.0 0.0 34.48637585096406" Properties=species:S:1:pos:R:3:initial_magmoms:R:1 pbc="T T T"
Si      -0.08022825      -0.68808960       2.25527230       0.00000000
Si       1.37213928      -1.28971188      -1.42790919       0.00000000
Si       1.01631681       2.12845140       0.25271630       0.00000000
Si      -2.28332043       0.11671785      -0.74711326       0.00000000
Si       2.00614608      -1.72726617       2.25885888       0.00000000
Si      -1.88854857      -1.28756160      -2.68466240       0.00000000
Si      -0.78889212       3.23095860       1.18346962       0.00000000
Si      -2.77765677       2.23503687       0.34231196       0.00000000
Si       0.39736197      -0.91572606      -3.50267969       0.00000000
Si       3.51561006      -0.20712735       1.18371103       0.00000000
