10
Lattice="16.28999089631971 0.0 0.0 0.0 16.28999089631971 0.0 0.0 0.0 34.48637585096406" Properties=species:S:1:pos:R:3:initial_magmoms:R:1 pbc="T T T"
Si       2.18054682      -0.84685194       0.01372559       0.00000000
Si      -2.11955706      -0.41604660       1.10811685       0.00000000
Si       0.52556427       1.96462287       1.36852362       0.00000000
Si      -0.64677816       0.36352764      -2.42866989       0.00000000
Si      -3.07527507       1.30375386      -0.17960515       0.00000000
Si      -1.48196646       2.98240578       0.43649430       0.00000000
Si       3.23618769       0.72031122      -1.44611801       0.00000000
Si      -3.07845162      -0.02858895      -2.16188314       0.00000000
Si       2.37996900      -2.80914534      -1.28530795       0.00000000
Si       3.52039932      -0.66668454       1.93199683       0.00000000
