10
Lattice="16.28999089631971 0.0 0.0 0.0 16.28999089631971 0.0 0.0 0.0 34.48637585096406" Properties=species:S:1:pos:R:3:initial_magmoms:R:1 pbc="T T T"
Si      -0.19942218       1.96229340       1.29903353       0.00000000
Si      -0.20023668      -1.93665294       1.41601138       0.00000000
Si       1.19404071      -1.86544935      -2.06718350       0.00000000
Si      -1.43371548       1.21603221      -2.64303732       0.00000000
Si       3.19347531       0.60515721       0.29485868       0.00000000
Si      -2.29371345      -2.27957373      -1.09942628       0.00000000
Si       1.06991091      -3.29570646      -0.11463278       0.00000000
Si       0.85621869       3.52945656      -0.16081006       0.00000000
Si       3.23688816      -0.64109295      -1.96186205       0.00000000
Si      -2.37996900       2.80914534       1.28530795       0.00000000
