10
Lattice="16.28999089631971 0.0 0.0 0.0 16.28999089631971 0.0 0.0 0.0 34.48637585096406" Properties=species:S:1:pos:R:3:initial_magmoms:R:1 pbc="T T T"
Si      -0.33355404       0.95369805       2.09218613       0.00000000
Si      -1.13350707      -2.05706862       0.25602700       0.00000000
Si      -0.96436800       1.41872868      -1.63637945       0.00000000
Si       1.28384748      -2.02031838       0.35214058       0.00000000
Si       0.27166833      -1.01569779       3.29693386       0.00000000
Si       1.23813774       2.91208185       1.71973307       0.00000000
Si      -3.25855386       1.20673062      -1.22019763       0.00000000
Si       2.39933781      -1.62802260       2.39349377       0.00000000
Si       2.75740830      -2.22053877      -1.42046013       0.00000000
Si       1.71826920       3.37116663      -0.58982082       0.00000000
