10
Lattice="16.28999089631971 0.0 0.0 0.0 16.28999089631971 0.0 0.0 0.0 34.48637585096406" Properties=species:S:1:pos:R:3:initial_magmoms:R:1 pbc="T T T"
Si       0.80325990      -2.13188437       0.56940487       0.00000000
Si      -1.06098073      -0.74813780      -2.00717717       0.00000000
Si      -2.15476694       0.33609039       0.98517285       0.00000000
Si       1.96426449       1.16971485       0.71359249       0.00000000
Si      -2.89395827      -1.29114118      -0.58582039       0.00000000
Si       0.54405342      -1.97321977       2.96683009       0.00000000
Si       2.78471034      -2.66722264      -0.66731175       0.00000000
Si       1.50091173       3.27206967       1.74280446       0.00000000
Si      -2.44339316      -3.09201697       0.88874889       0.00000000
Si      -0.57634183      -3.99896272      -0.12718583       0.00000000
