10
Lattice="16.28999089631971 0.0 0.0 0.0 16.28999089631971 0.0 0.0 0.0 34.48637585096406" Properties=species:S:1:pos:R:3:initial_magmoms:R:1 pbc="T T T"
Si      -2.30573547       0.46038798       0.09838969       0.00000000
Si       0.51145713      -2.29946382       0.40793957       0.00000000
Si       1.04943438      -0.06017526      -2.15960704       0.00000000
Si       1.00181871       1.57868019       1.55695728       0.00000000
Si      -2.52159426       0.91654056       2.40201191       0.00000000
Si       3.27126006      -0.44292510      -1.46625806       0.00000000
Si       2.64075561      -2.52284859      -0.59268319       0.00000000
Si       1.79203032       3.41642025       0.23219690       0.00000000
Si       3.10348935       0.84890448       2.23530467       0.00000000
Si      -1.13430528      -3.73969530      -0.61306465       0.00000000
