10
Lattice="16.28999089631971 0.0 0.0 0.0 16.28999089631971 0.0 0.0 0.0 34.48637585096406" Properties=species:S:1:pos:R:3:initial_magmoms:R:1 pbc="T T T"
Si       0.48013146       0.45908478      -2.30955388       0.00000000
Si       1.73193651      -0.09984141       1.67410756       0.00000000
Si      -1.51182603       1.64159431       1.10021946       0.00000000
Si      -1.57169178      -1.95838380       0.37245307       0.00000000
Si      -3.08936592       0.88594794      -0.54009143       0.00000000
Si      -1.82263923       0.76059639      -2.67462686       0.00000000
Si      -1.23813774      -2.91208185      -1.71973307       0.00000000
Si       1.79465301       2.55207026       1.98955462       0.00000000
Si       0.50181345      -0.61172208       3.63617653       0.00000000
Si       2.34861075       1.93351127      -2.18178179       0.00000000
