10
Lattice="16.28999089631971 0.0 0.0 0.0 16.28999089631971 0.0 0.0 0.0 34.48637585096406" Properties=species:S:1:pos:R:3:initial_magmoms:R:1 pbc="T T T"
Si      -0.39767148      -2.29182937       0.33186258       0.00000000
Si       1.82532708       0.12229717      -1.51916019       0.00000000
Si       1.12798476       1.03078070       1.84112518       0.00000000
Si      -2.20766967       0.50520829      -0.78066853       0.00000000
Si       1.75651812      -2.64569704       1.24268276       0.00000000
Si       1.84915935      -0.91646467       2.91251401       0.00000000
Si      -2.39539563      -2.46943924       1.61534275       0.00000000
Si       0.81585207      -0.06255849      -3.77119077       0.00000000
Si      -0.37079298       2.34258508       3.07884190       0.00000000
Si       2.17706076       2.37915613      -2.24161568       0.00000000
