10
Lattice="16.28999089631971 0.0 0.0 0.0 16.28999089631971 0.0 0.0 0.0 34.48637585096406" Properties=species:S:1:pos:R:3:initial_magmoms:R:1 pbc="T T T"
Si      -1.48289499      -1.72471582      -0.72111052       0.00000000
Si       2.20766967      -0.50520829       0.78066853       0.00000000
Si      -1.27014759       1.35905352       1.53064416       0.00000000
Si       0.12412980       1.43025711      -1.95255072       0.00000000
Si      -1.06991091       3.29570646       0.11463278       0.00000000
Si       1.80999819      -2.79703765       1.11253111       0.00000000
Si      -2.26225746      -2.51688223       1.34483146       0.00000000
Si      -3.36362436       1.01613273      -0.98479350       0.00000000
Si      -0.29537028       0.98506770       3.60541466       0.00000000
Si      -0.18772596      -2.97464752       2.39601127       0.00000000
