10
Lattice="16.28999089631971 0.0 0.0 0.0 16.28999089631971 0.0 0.0 0.0 34.48637585096406" Properties=species:S:1:pos:R:3:initial_magmoms:R:1 pbc="T T T"
Si       1.84433751      -1.45649120      -0.31606781       0.00000000
Si      -0.31408749       1.08103698      -2.09056527       0.00000000
Si       0.10718820       1.35083685       1.96010324       0.00000000
Si      -1.86847929      -1.47442649      -0.12777209       0.00000000
Si      -0.23749191      -0.92698475      -3.34414574       0.00000000
Si      -1.02770352      -2.76472481      -2.01938535       0.00000000
Si       3.18436920      -0.16240641      -1.78284317       0.00000000
Si      -1.79160678       2.76987504       1.74021798       0.00000000
Si      -2.34861075      -1.93351127       2.18178179       0.00000000
Si      -2.40046182       2.12021355      -2.09415186       0.00000000
