10
Lattice="16.28999089631971 0.0 0.0 0.0 16.28999089631971 0.0 0.0 0.0 34.48637585096406" Properties=species:S:1:pos:R:3:initial_magmoms:R:1 pbc="T T T"
Si       1.35669636       1.35672894       1.35783284       0.00000000
Si      -1.35729909      -1.35752715       1.35738451       0.00000000
Si       1.35778779      -1.35716877      -1.35741900       0.00000000
Si      -1.35741312       1.35773892      -1.35735003       0.00000000
Si      -0.00001629      -2.71138905       2.71642437       0.00000000
Si       2.71469592      -2.71435383      -0.00010346       0.00000000
Si      -2.71494027      -2.71441899       0.00013795       0.00000000
Si       2.71604799       0.00175932      -2.71373443       0.00000000
Si      -2.71531494       0.00216657      -2.71463108       0.00000000
Si       0.00169416      -2.71524978      -2.71470005       0.00000000
