10
Lattice="16.28999089631971 0.0 0.0 0.0 16.28999089631971 0.0 0.0 0.0 34.48637585096406" Properties=species:S:1:pos:R:3:initial_magmoms:R:1 pbc="T T T"
Si       1.35461124      -1.35866745      -1.36076418       0.00000000
Si      -1.35951453       1.35769005      -1.36131596       0.00000000
Si       1.34578206       1.35500220       1.38276650       0.00000000
Si      -1.35425286      -1.36469475       1.37804186       0.00000000
Si       2.71479366       2.71515204      -0.00068973       0.00000000
Si       2.71293660      -2.71757925      -0.00137946       0.00000000
Si       2.71313208      -0.00034209      -2.71863150       0.00000000
Si      -2.71595025      -2.71601541      -0.00148291       0.00000000
Si      -0.00228060       2.71547784      -2.71849355       0.00000000
Si      -0.00208512      -2.71539639      -2.71859701       0.00000000
