10
Lattice="16.28999089631971 0.0 0.0 0.0 16.28999089631971 0.0 0.0 0.0 34.48637585096406" Properties=species:S:1:pos:R:3:initial_magmoms:R:1 pbc="T T T"
Si      -0.28693206       0.05040126       2.28548238       0.00000000
Si       0.54389052      -2.24065692      -0.38797195       0.00000000
Si       1.89889272       1.31274594      -0.47222221       0.00000000
Si      -1.95540273       0.09492183      -1.31896667       0.00000000
Si      -2.45566863      -1.09698489       2.34910978       0.00000000
Si       1.98102690      -1.09170693       2.77460292       0.00000000
Si       2.47388085       0.55140021      -2.60827504       0.00000000
Si       2.40808554      -2.59309107       0.89930173       0.00000000
Si      -1.23369057       1.12985811      -3.27306927       0.00000000
Si       0.53266671      -2.47093236      -2.74549640       0.00000000
