10
Lattice="16.28999089631971 0.0 0.0 0.0 16.28999089631971 0.0 0.0 0.0 34.48637585096406" Properties=species:S:1:pos:R:3:initial_magmoms:R:1 pbc="T T T"
Si      -0.60424497       2.06889516      -1.04397215       0.00000000
Si       1.98031014       0.31109013       1.32582946       0.00000000
Si       0.58964913      -2.26272987      -0.57781955       0.00000000
Si      -2.21853510      -0.54809334       1.06931965       0.00000000
Si      -2.07780579       2.26911555       0.72862856       0.00000000
Si      -1.06341120      -2.18652525       2.37397447       0.00000000
Si       0.82414368      -0.98921025       3.38880562       0.00000000
Si       1.21867119       3.49073523      -0.45549631       0.00000000
Si      -3.33664812      -1.41371136      -0.87698903       0.00000000
Si       0.87658119      -2.31313113      -2.86330193       0.00000000
