10
Lattice="16.28999089631971 0.0 0.0 0.0 16.28999089631971 0.0 0.0 0.0 34.48637585096406" Properties=species:S:1:pos:R:3:initial_magmoms:R:1 pbc="T T T"
Si       1.35591444      -1.35946566      -1.36100558       0.00000000
Si      -1.35927018       1.35892809      -1.36045380       0.00000000
Si       1.35738054       1.34907264       1.37338620       0.00000000
Si      -1.36901160      -1.36014984       1.38345623       0.00000000
Si      -0.11644092       2.65759947       2.71518286       0.00000000
Si       2.71606428       2.71358820      -0.00182778       0.00000000
Si       2.71507059      -2.71472850      -0.00572474       0.00000000
Si      -2.71479366      -2.71515204       0.00068973       0.00000000
Si      -2.71639008       2.71404432      -0.00458669       0.00000000
Si       2.71318095      -0.00048870      -2.71770037       0.00000000
