10
Lattice="16.28999089631971 0.0 0.0 0.0 16.28999089631971 0.0 0.0 0.0 34.48637585096406" Properties=species:S:1:pos:R:3:initial_magmoms:R:1 pbc="T T T"
Si      -0.13375719       2.31298452      -0.26930426       0.00000000
Si      -2.06394300      -0.79175916       0.75945939       0.00000000
Si       1.71825291      -0.32993766       1.59234032       0.00000000
Si       0.45095607       0.15086169      -2.34690265       0.00000000
Si       3.24252450      -0.68276277      -0.13553153       0.00000000
Si       1.64849913       2.23863696      -1.89409628       0.00000000
Si      -1.68130719      -3.14374194       0.55967971       0.00000000
Si       2.31651945      -2.58629814      -1.20757561       0.00000000
Si       1.22824971      -2.39876766       2.52892184       0.00000000
Si      -2.39546079       2.37591279      -1.61544621       0.00000000
