10
Lattice="16.28999089631971 0.0 0.0 0.0 16.28999089631971 0.0 0.0 0.0 34.48637585096406" Properties=species:S:1:pos:R:3:initial_magmoms:R:1 pbc="T T T"
Si       0.49590018       1.16833509       1.93220375       0.00000000
Si       1.92780747      -0.15174135      -1.35845359       0.00000000
Si      -0.69753780      -2.28371139       0.05041911       0.00000000
Si      -1.63742193       1.56131505      -0.81301677       0.00000000
Si      -0.98174943      -0.89671563      -3.32769572       0.00000000
Si       1.12640463       3.24825858       1.05862887       0.00000000
Si      -1.63339830       1.39171986       2.93282650       0.00000000
Si      -2.03739030      -2.46387879      -1.86785213       0.00000000
Si      -1.36438524       1.45526715      -3.12791604       0.00000000
Si      -3.69237285       0.34759602      -0.51305410       0.00000000
