10
Lattice="16.28999089631971 0.0 0.0 0.0 16.28999089631971 0.0 0.0 0.0 34.48637585096406" Properties=species:S:1:pos:R:3:initial_magmoms:R:1 pbc="T T T"
Si      -1.35744570      -1.35578412       1.35741900       0.00000000
Si       1.35764118      -1.35808101      -1.35717759       0.00000000
Si       1.35746199       1.35759231       1.35835013       0.00000000
Si      -1.35777150       1.35876519      -1.35700516       0.00000000
Si      -0.00004887       2.71439809      -2.71225152       0.00000000
Si      -2.71456560      -0.00066789       2.71328611       0.00000000
Si      -0.00017919      -2.71308321      -2.71518286       0.00000000
Si      -2.71264338       0.00167787      -2.71597605       0.00000000
Si      -2.71524978      -2.71438641       0.00006897       0.00000000
Si       2.71500543       2.71484292       0.00010346       0.00000000
