10
Lattice="16.28999089631971 0.0 0.0 0.0 16.28999089631971 0.0 0.0 0.0 34.48637585096406" Properties=species:S:1:pos:R:3:initial_magmoms:R:1 pbc="T T T"
Si       0.13375719      -2.31298452       0.26930426       0.00000000
Si       0.47614041       1.21106376       1.98769236       0.00000000
Si       1.78225632      -0.07434756      -1.62479202       0.00000000
Si      -2.26170360       0.06292827      -1.34614195       0.00000000
Si       0.58471326      -2.16212283      -2.07759839       0.00000000
Si      -1.00914921      -1.03047282      -3.31028010       0.00000000
Si      -2.81675277       2.28338559       0.15405073       0.00000000
Si       1.85201010      -2.64292218       1.86164458       0.00000000
Si      -1.52158374       1.03345389       3.27117252       0.00000000
Si      -1.93018581      -3.10474368       1.02876365       0.00000000
