10
Lattice="16.28999089631971 0.0 0.0 0.0 16.28999089631971 0.0 0.0 0.0 34.48637585096406" Properties=species:S:1:pos:R:3:initial_magmoms:R:1 pbc="T T T"
Si      -1.08175374       0.18104706      -2.06180362       0.00000000
Si      -0.07659558       2.00802173       1.25358046       0.00000000
Si      -0.79021161      -1.83774006       1.32476038       0.00000000
Si       2.38145139      -0.24505047      -0.37265999       0.00000000
Si       0.23749191       0.92698475       3.34414574       0.00000000
Si       1.31145903      -2.56751577       2.00310777       0.00000000
Si      -0.71060238       2.44557602      -2.43318761       0.00000000
Si       2.44969020      -2.55357153      -0.00582820       0.00000000
Si      -1.63098738      -0.54744174       3.21637364       0.00000000
Si       2.08182942      -0.52950645       3.02807792       0.00000000
