10
Lattice="16.28999089631971 0.0 0.0 0.0 16.28999089631971 0.0 0.0 0.0 34.48637585096406" Properties=species:S:1:pos:R:3:initial_magmoms:R:1 pbc="T T T"
Si       1.35459073      -1.35742461      -1.36148839       0.00000000
Si      -1.36295172       1.35776556      -1.36152288       0.00000000
Si      -1.34672688      -1.37827581       1.36162634       0.00000000
Si       1.34998066       1.35321414       1.38400801       0.00000000
Si      -0.20463498       2.57101381       2.82143544       0.00000000
Si       2.71121705       2.71550611       0.00241405       0.00000000
Si       2.71066319      -2.71794912      -0.00124151       0.00000000
Si       2.71229219      -0.00001356      -2.71845907       0.00000000
Si      -2.71521720      -2.71610835      -0.00289686       0.00000000
Si      -0.00298280       2.71477306      -2.71901085       0.00000000
