10
Lattice="16.28999089631971 0.0 0.0 0.0 16.28999089631971 0.0 0.0 0.0 34.48637585096406" Properties=species:S:1:pos:R:3:initial_magmoms:R:1 pbc="T T T"
Si      -1.35412254       1.35946729       1.35555673       0.00000000
Si      -1.35514881      -1.35790699      -1.35731554       0.00000000
Si       1.35996892       1.35700750      -1.35748797       0.00000000
Si       1.36295172      -1.35776556       1.36152288       0.00000000
Si      -2.71230129       2.71290565      -0.00010346       0.00000000
Si      -0.01723482       2.69863561       2.72880499       0.00000000
Si      -2.71373481      -0.00044635      -2.71407930       0.00000000
Si      -2.71269225      -2.71515760       0.00093113       0.00000000
Si       0.00286704       2.71459981      -2.71504492       0.00000000
Si       0.00260640      -2.71502728      -2.71487248       0.00000000
