10
Lattice="16.28999089631971 0.0 0.0 0.0 16.28999089631971 0.0 0.0 0.0 34.48637585096406" Properties=species:S:1:pos:R:3:initial_magmoms:R:1 pbc="T T T"
Si       0.96488669       1.77601725       1.24030320       0.00000000
Si      -1.17555156       1.48538736      -1.45415334       0.00000000
Si       1.55461564      -1.21779967      -1.43742744       0.00000000
Si      -1.28907657      -1.50916424       1.54471461       0.00000000
Si       1.88536292       0.57073644       3.08825668       0.00000000
Si      -2.52138249      -2.69939051      -0.07162824       0.00000000
Si      -2.51243928       0.14621904      -2.82740159       0.00000000
Si       0.20463498      -2.57101381      -2.82143544       0.00000000
Si      -2.60304426       2.80313433      -0.04014216       0.00000000
Si       2.92438799      -2.54948469       0.05935109       0.00000000
