10
Lattice="16.28999089631971 0.0 0.0 0.0 16.28999089631971 0.0 0.0 0.0 34.48637585096406" Properties=species:S:1:pos:R:3:initial_magmoms:R:1 pbc="T T T"
Si      -1.22679990       1.96452513       0.01879509       0.00000000
Si      -0.82787409      -0.84262631       2.04300853       0.00000000
Si      -0.73919133      -1.62723158      -1.57099324       0.00000000
Si       2.15476694      -0.33609039      -0.98517285       0.00000000
Si       1.09378620      -1.08422819      -2.99235002       0.00000000
Si      -0.28862622      -3.42810737      -0.09642396       0.00000000
Si       0.41038845      -2.78105228       2.09591066       0.00000000
Si      -3.07239174      -1.15429311       1.32955399       0.00000000
Si      -3.19718943       1.25685495       1.23395770       0.00000000
Si      -1.33959186       2.90613600      -2.13094884       0.00000000
