10
Lattice="16.28999089631971 0.0 0.0 0.0 16.28999089631971 0.0 0.0 0.0 34.48637585096406" Properties=species:S:1:pos:R:3:initial_magmoms:R:1 pbc="T T T"
Si       1.31338125       1.10236059      -1.60627283       0.00000000
Si      -1.33092558      -1.53790632      -1.43504787       0.00000000
Si      -1.23540102       2.12294538       1.07638936       0.00000000
Si       0.93331926       0.44678583       3.03328537       0.00000000
Si       2.52635094      -1.50985494       1.53360999       0.00000000
Si      -1.49835420       0.05466924       3.30007212       0.00000000
Si       2.06669601       3.02251176      -0.41545760       0.00000000
Si       2.63656908       2.21747625       1.73880404       0.00000000
Si       0.05103657       2.50880661      -2.93951686       0.00000000
Si       1.02965832      -3.43051110       1.52212602       0.00000000
