10
Lattice="16.28999089631971 0.0 0.0 0.0 16.28999089631971 0.0 0.0 0.0 34.48637585096406" Properties=species:S:1:pos:R:3:initial_magmoms:R:1 pbc="T T T"
Si       1.35653576      -1.35824391      -1.36217812       0.00000000
Si      -1.36107837       1.35707103      -1.36224709       0.00000000
Si       1.37046697       1.35435060       1.36014342       0.00000000
Si      -1.37823174      -1.37430585       1.36683378       0.00000000
Si      -0.04505814       2.57787621       2.75129012       0.00000000
Si       2.71139624       2.71673217      -0.00631101       0.00000000
Si       2.71317185      -2.71520091       0.00196572       0.00000000
Si      -2.71511946      -2.71347417      -0.00641447       0.00000000
Si      -2.71425609       2.71485882      -0.00724214       0.00000000
Si       2.71370942      -0.00071676      -2.71942469       0.00000000
