10
Lattice="16.28999089631971 0.0 0.0 0.0 16.28999089631971 0.0 0.0 0.0 34.48637585096406" Properties=species:S:1:pos:R:3:initial_magmoms:R:1 pbc="T T T"
Si       0.00317655       1.33234281       1.98227799       0.00000000
Si      -1.12993956      -2.14684281       0.12249568       0.00000000
Si      -1.73933706       1.30675122      -1.12177346       0.00000000
Si       2.43167346       0.39211659      -0.26678675       0.00000000
Si       0.26295318       2.06827614      -2.22368276       0.00000000
Si       0.95889456      -0.38745765       3.26999999       0.00000000
Si       1.49835420      -0.05466924      -3.30007212       0.00000000
Si      -3.37115753      -1.25426484       0.69700453       0.00000000
Si       3.07845162       0.02858895       2.16188314       0.00000000
Si      -2.11519623       2.18634606       2.49753922       0.00000000
