10
Lattice="16.28999089631971 0.0 0.0 0.0 16.28999089631971 0.0 0.0 0.0 34.48637585096406" Properties=species:S:1:pos:R:3:initial_magmoms:R:1 pbc="T T T"
Si       1.35059154       1.36215351       1.35383241       0.00000000
Si       1.35378112      -1.35904212      -1.35966061       0.00000000
Si      -1.36221867       1.35744570      -1.35828116       0.00000000
Si      -1.36677987      -1.38184812       1.36014342       0.00000000
Si      -0.04792518       2.55671550       2.81022737       0.00000000
Si       2.66967755       0.01775610       2.75056590       0.00000000
Si       2.70911564      -2.71195920      -0.00324172       0.00000000
Si       2.71033739       2.71264338       0.00137946       0.00000000
Si       2.71115189       0.00055386      -2.71625194       0.00000000
Si      -2.71554300       2.71448415      -0.00027589       0.00000000
