10
Lattice="16.28999089631971 0.0 0.0 0.0 16.28999089631971 0.0 0.0 0.0 34.48637585096406" Properties=species:S:1:pos:R:3:initial_magmoms:R:1 pbc="T T T"
Si       2.26774719      -0.38424852       0.33889780       0.00000000
Si      -1.52427159       0.35282511       1.72787185       0.00000000
Si      -0.92600505      -1.90353537      -1.07204408       0.00000000
Si       0.40653324       1.75433526      -1.59813404       0.00000000
Si      -3.24252450       0.68276277       0.13553153       0.00000000
Si      -2.79156843       0.83362446      -2.21137111       0.00000000
Si       1.17211437      -3.22180362      -1.32241531       0.00000000
Si      -1.53955161      -0.83636118      -3.28348417       0.00000000
Si      -2.01427479      -1.71600489       2.66445337       0.00000000
Si      -1.59402537       2.92139973      -1.75856475       0.00000000
