10
Lattice="16.28999089631971 0.0 0.0 0.0 16.28999089631971 0.0 0.0 0.0 34.48637585096406" Properties=species:S:1:pos:R:3:initial_magmoms:R:1 pbc="T T T"
Si       0.22041999       2.16305136      -0.81922432       0.00000000
Si      -0.55789992      -1.33706691      -1.85609227       0.00000000
Si       1.84278996      -0.62442828       1.36283336       0.00000000
Si      -1.84930596      -0.00589698       1.49757171       0.00000000
Si      -0.87884550       1.29987684       3.19019847       0.00000000
Si      -1.93376961       2.51691903      -1.73004450       0.00000000
Si       1.27791792      -2.78304876       1.96093091       0.00000000
Si       1.35249354       0.61550136       3.34193861       0.00000000
Si      -1.04790312      -3.40589691      -0.91951075       0.00000000
Si       2.14386174       2.29653162      -2.25875542       0.00000000
