10
Lattice="16.28999089631971 0.0 0.0 0.0 16.28999089631971 0.0 0.0 0.0 34.48637585096406" Properties=species:S:1:pos:R:3:initial_magmoms:R:1 pbc="T T T"
Si       0.75523698      -1.89091062       1.36853741       0.00000000
Si      -0.44383734      -0.76129686      -2.30142686       0.00000000
Si      -1.95439275       0.81746478       1.36244367       0.00000000
Si       1.79841600       1.87049925       0.12653403       0.00000000
Si       2.11040208      -0.55410435       2.75681139       0.00000000
Si      -0.62374410       2.17882008       2.75829430       0.00000000
Si       3.47338104       0.79913853       1.37693485       0.00000000
Si       0.74280771       3.51753212       1.40414462       0.00000000
Si       2.03797674      -3.37460382      -0.06848653       0.00000000
Si      -3.30947640       2.22749460      -0.02025386       0.00000000
