10
Lattice="16.28999089631971 0.0 0.0 0.0 16.28999089631971 0.0 0.0 0.0 34.48637585096406" Properties=species:S:1:pos:R:3:initial_magmoms:R:1 pbc="T T T"
Si      -1.47792654      -1.59790239      -0.76735678       0.00000000
Si      -0.70696971       0.63418599       2.15598596       0.00000000
Si       1.50360514      -1.70913051       0.94013362       0.00000000
Si       0.64327581       2.00935521      -1.29330879       0.00000000
Si       1.17540399      -0.53398620       2.98621144       0.00000000
Si      -0.31066659       2.93396651       1.63696572       0.00000000
Si      -0.26410977      -2.10408156      -2.77349936       0.00000000
Si       2.25155234       0.96163128      -2.64700326       0.00000000
Si      -3.47848515      -0.43083792      -0.92778749       0.00000000
Si       1.54290150       3.58741868       0.17553575       0.00000000
