10
Lattice="16.28999089631971 0.0 0.0 0.0 16.28999089631971 0.0 0.0 0.0 34.48637585096406" Properties=species:S:1:pos:R:3:initial_magmoms:R:1 pbc="T T T"
Si      -2.11346460      -0.25280451      -1.00617506       0.00000000
Si       0.45056511      -1.80087579       1.47456928       0.00000000
Si       0.73919133       1.62723158       1.57099324       0.00000000
Si       1.83297753       0.54300339      -1.42135678       0.00000000
Si       2.89395827       1.29114118       0.58582039       0.00000000
Si      -3.37361013      -0.53669034       0.96658468       0.00000000
Si       2.31761644      -2.70782154       0.45863457       0.00000000
Si      -0.08868276       0.78460526       3.61400178       0.00000000
Si      -2.33320041       0.47293847       2.90054723       0.00000000
Si       1.04256000       2.04103016      -3.07691066       0.00000000
