10
Lattice="16.28999089631971 0.0 0.0 0.0 16.28999089631971 0.0 0.0 0.0 34.48637585096406" Properties=species:S:1:pos:R:3:initial_magmoms:R:1 pbc="T T T"
Si      -1.52459739      -1.72871109       0.01058732       0.00000000
Si       1.86705133      -0.90694575      -1.01593471       0.00000000
Si      -0.45056511       1.80087579      -1.47456928       0.00000000
Si       0.69901467       0.64705509       2.19233462       0.00000000
Si      -0.53924787       2.58548105       2.13943249       0.00000000
Si       3.24665306       0.96013260      -0.31934402       0.00000000
Si       0.28862622       3.42810737       0.09642396       0.00000000
Si       2.43933695      -2.43020736       0.70762634       0.00000000
Si      -1.03430097      -2.96864073      -1.96851792       0.00000000
Si      -1.23289236      -2.88859167       2.05614785       0.00000000
