10
Lattice="16.28999089631971 0.0 0.0 0.0 16.28999089631971 0.0 0.0 0.0 34.48637585096406" Properties=species:S:1:pos:R:3:initial_magmoms:R:1 pbc="T T T"
Si      -0.10946880       1.63517391       1.64379402       0.00000000
Si      -2.04509547      -1.12438467      -0.07204208       0.00000000
Si       0.06554544       1.19511585      -2.03880119       0.00000000
Si       2.02348583      -1.18962612       0.34165672       0.00000000
Si       2.84308460      -0.65458107      -1.78046361       0.00000000
Si       2.35397735       1.66685796      -2.15305462       0.00000000
Si      -1.86636159      -2.34053091      -2.17498797       0.00000000
Si      -3.63089439       0.60918084       0.48960335       0.00000000
Si      -2.41961886       2.08151991       1.90585614       0.00000000
Si       1.49600748      -3.38305833       1.06845749       0.00000000
