10
Lattice="16.28999089631971 0.0 0.0 0.0 16.28999089631971 0.0 0.0 0.0 34.48637585096406" Properties=species:S:1:pos:R:3:initial_magmoms:R:1 pbc="T T T"
Si       1.31908601      -1.34439741       1.39673349       0.00000000
Si       1.35974585       1.35048987      -1.35245296       0.00000000
Si      -1.39851672       1.19456199       1.45639495       0.00000000
Si      -1.35059154      -1.36215351      -1.35383241       0.00000000
Si      -2.28918876      -0.71301330       2.65338324       0.00000000
Si      -0.47162645      -2.41577442       2.63372600       0.00000000
Si       0.22647335       2.35269954       2.77987934       0.00000000
Si      -2.69764422       2.69016318       0.01041489       0.00000000
Si       2.69137190      -2.71691136      -0.00248302       0.00000000
Si       0.00367340       2.71101438      -2.71269984       0.00000000
