10
Lattice="16.28999089631971 0.0 0.0 0.0 16.28999089631971 0.0 0.0 0.0 34.48637585096406" Properties=species:S:1:pos:R:3:initial_magmoms:R:1 pbc="T T T"
Si      -1.35701076      -1.35635590       1.35752246       0.00000000
Si       1.35826020       1.35856971       1.35724657       0.00000000
Si       1.36052451      -1.35673709      -1.35790181       0.00000000
Si      -1.35890203       1.35816246      -1.36259196       0.00000000
Si      -2.71152656      -0.01135413      -2.70049855       0.00000000
Si      -2.71502290      -2.71271439       0.00034486       0.00000000
Si      -2.71418355       0.00073305       2.71480351       0.00000000
Si       0.00109143      -2.71405358       2.71535529       0.00000000
Si       2.71581993      -2.71366463       0.00065524       0.00000000
Si       2.71568961       0.00128691       2.71497594       0.00000000
