10
Lattice="16.28999089631971 0.0 0.0 0.0 16.28999089631971 0.0 0.0 0.0 34.48637585096406" Properties=species:S:1:pos:R:3:initial_magmoms:R:1 pbc="T T T"
Si       1.33463970      -1.33540533       1.61407710       0.00000000
Si      -1.41012756      -1.22805423      -1.66579776       0.00000000
Si      -1.34325711       1.36520000       1.62078815       0.00000000
Si       1.96322193       1.03671189      -1.26813514       0.00000000
Si      -2.58506336      -2.64051126       0.03058598       0.00000000
Si      -2.92822361       0.41822946      -2.36680272       0.00000000
Si       2.85381252      -2.54907549       0.23357635       0.00000000
Si      -2.74333537       2.71916005       0.32991065       0.00000000
Si       2.73631275       2.75278913       0.21387083       0.00000000
Si       3.74886657      -0.72760914      -1.14567395       0.00000000
