10
Lattice="16.28999089631971 0.0 0.0 0.0 16.28999089631971 0.0 0.0 0.0 34.48637585096406" Properties=species:S:1:pos:R:3:initial_magmoms:R:1 pbc="T T T"
Si      -1.60827653       1.04772393       1.35369447       0.00000000
Si      -1.62499007      -1.15813755      -1.32348439       0.00000000
Si       1.14236231       1.73726857      -1.25030426       0.00000000
Si       1.63539545      -1.32598971       1.38476671       0.00000000
Si      -2.25155234      -0.96163128       2.64700326       0.00000000
Si      -0.22647335      -2.35269954      -2.77987934       0.00000000
Si       2.47947809       0.38972196      -2.76905061       0.00000000
Si       2.92649198      -2.44666026      -0.29389306       0.00000000
Si      -0.70865084       2.62578740       2.82253901       0.00000000
Si      -2.51566211      -3.06571284      -0.12649610       0.00000000
