10
Lattice="16.28999089631971 0.0 0.0 0.0 16.28999089631971 0.0 0.0 0.0 34.48637585096406" Properties=species:S:1:pos:R:3:initial_magmoms:R:1 pbc="T T T"
Si      -1.35663609       1.35695700      -1.36414385       0.00000000
Si       1.36013355      -1.35771937      -1.36245401       0.00000000
Si      -1.36123638      -1.36229198       1.38159396       0.00000000
Si       1.35769005       1.36409202       1.38549092       0.00000000
Si      -2.71121705      -2.71550611      -0.00241405       0.00000000
Si      -2.71317185       2.71520091      -0.00196572       0.00000000
Si       2.71674846       2.71362078      -0.00427631       0.00000000
Si       2.71502172      -2.71617954      -0.00596615       0.00000000
Si      -2.71419984      -0.00073305      -2.72142490       0.00000000
Si       0.00053757       2.71448415      -2.72139041       0.00000000
