10
Lattice="16.28999089631971 0.0 0.0 0.0 16.28999089631971 0.0 0.0 0.0 34.48637585096406" Properties=species:S:1:pos:R:3:initial_magmoms:R:1 pbc="T T T"
Si      -1.73177361       1.35213516      -0.84336479       0.00000000
Si       1.03294890       1.05925725       1.85209185       0.00000000
Si       1.28272347      -0.12196323      -2.00245253       0.00000000
Si      -0.69533865      -2.21223087       0.61516832       0.00000000
Si      -2.32810327      -0.27248283       2.39221777       0.00000000
Si      -3.04601008      -0.58139010      -1.35172874       0.00000000
Si       2.51058222       2.41206030       0.51464047       0.00000000
Si      -0.94850154       1.59459552       3.08880847       0.00000000
Si       3.21172011       1.08732492      -1.42094294       0.00000000
Si       1.79144388      -0.81233343       3.13902066       0.00000000
