10
Lattice="16.28999089631971 0.0 0.0 0.0 16.28999089631971 0.0 0.0 0.0 34.48637585096406" Properties=species:S:1:pos:R:3:initial_magmoms:R:1 pbc="T T T"
Si      -1.86705133       0.90694575       1.01593471       0.00000000
Si       0.57228562      -1.52326161       1.72356106       0.00000000
Si       1.37960173       1.86707835       0.69659070       0.00000000
Si      -0.76162755      -2.03191686      -2.09528991       0.00000000
Si       1.63276462      -1.93974804      -1.77704945       0.00000000
Si       2.42483329      -2.22632172       0.44570217       0.00000000
Si       2.32810327       0.27248283      -2.39221777       0.00000000
Si      -2.31761644       2.70782154      -0.45863457       0.00000000
Si      -3.39164872      -0.82176534       1.02652204       0.00000000
Si       3.36105217       1.33174008      -0.54012592       0.00000000
