10
Lattice="16.28999089631971 0.0 0.0 0.0 16.28999089631971 0.0 0.0 0.0 34.48637585096406" Properties=species:S:1:pos:R:3:initial_magmoms:R:1 pbc="T T T"
Si       0.81959877       0.53504505      -2.12212032       0.00000000
Si       1.50871464       1.04506866       1.47053437       0.00000000
Si      -0.52747835      -2.19343221       0.72680078       0.00000000
Si      -2.02348583       1.18962612      -0.34165672       0.00000000
Si      -2.13295463       2.82480003       1.30213731       0.00000000
Si       0.33049152       2.85648408      -2.49471134       0.00000000
Si       2.22692445       3.12634422       0.27771894       0.00000000
Si      -1.07660447      -3.55115484      -1.15667369       0.00000000
Si      -1.95794039       2.38474197      -2.38045791       0.00000000
Si      -0.21761811      -0.69252048      -3.86516619       0.00000000
