10
Lattice="10.86 0.0 0.0 0.0 10.86 0.0 0.0 0.0 10.86" Properties=species:S:1:pos:R:3:initial_magmoms:R:1 pbc="T T T"
Si      -1.48635390      -1.06635426       1.14312360       0.00000000
Si       1.22864610      -1.06635426      -1.57187640       0.00000000
Si       1.22864610       1.64864574       1.14312360       0.00000000
Si      -0.12885390      -2.42385426       2.50062360       0.00000000
Si       2.58614610      -2.42385426      -0.21437640       0.00000000
Si       2.58614610       0.29114574       2.50062360       0.00000000
Si      -2.88102768      -2.36996694      -0.38469378       0.00000000
Si      -0.30068082      -2.46277650      -2.86358652       0.00000000
Si      -2.84385390       0.29114574       2.50062360       0.00000000
Si      -0.12885390       3.00614574       2.50062360       0.00000000
