10
Lattice="16.28999089631971 0.0 0.0 0.0 16.28999089631971 0.0 0.0 0.0 34.3005442915855" Properties=species:S:1:pos:R:3:initial_magmoms:R:1 pbc="T T T"
Si       2.07010714      -0.85318875       0.61514631       0.00000000
Si       0.31036522       2.01689815      -1.16265190       0.00000000
Si      -1.38924445      -1.61629380      -1.03577411       0.00000000
Si      -0.63587689       1.14144030       1.98823216       0.00000000
Si       0.20946497      -1.88529057      -2.77090242       0.00000000
Si      -1.55134624       2.04329772      -2.60958687       0.00000000
Si       2.09998300      -0.36997848      -2.99094053       0.00000000
Si       1.71495256      -2.76721488       1.86262350       0.00000000
Si      -3.52903369      -0.62900577      -1.17266766       0.00000000
Si      -2.79922540       2.21222340       1.30921821       0.00000000
