10
Lattice="16.28999089631971 0.0 0.0 0.0 16.28999089631971 0.0 0.0 0.0 34.3005442915855" Properties=species:S:1:pos:R:3:initial_magmoms:R:1 pbc="T T T"
Si       2.11247091       0.69390513      -0.58911218       0.00000000
Si      -1.40154273       1.88649833       0.20844452       0.00000000
Si      -0.89042769      -1.32139593      -1.80921752       0.00000000
Si       2.87489178      -0.88800048       1.02881110       0.00000000
Si       1.76637357       0.59474790       2.70000315       0.00000000
Si      -1.50918705      -2.00907828       2.24075291       0.00000000
Si      -1.24558227      -3.23542206      -0.56174033       0.00000000
Si       1.97648199       0.29818845      -2.89894642       0.00000000
Si       2.07042642       2.80273427       1.05357611       0.00000000
Si      -3.59641172       0.67323312      -0.43613166       0.00000000
