10
Lattice="16.28999089631971 0.0 0.0 0.0 16.28999089631971 0.0 0.0 0.0 34.3005442915855" Properties=species:S:1:pos:R:3:initial_magmoms:R:1 pbc="T T T"
Si      -1.35464382       1.35547461       1.36012024       0.00000000
Si       1.35387819       1.34780202      -1.37189220       0.00000000
Si       1.35871632      -1.36096434       1.35813081       0.00000000
Si      -1.35596331      -1.36081773      -1.38563643       0.00000000
Si       2.71502172       2.71070487      -0.00198943       0.00000000
Si      -2.71614573       2.71010214      -0.00294985       0.00000000
Si       0.00063531       2.71213839       2.71735924       0.00000000
Si      -2.71479366      -0.00302994       2.71684473       0.00000000
Si      -2.71241532      -2.71977188      -0.00216094       0.00000000
Si       2.71554300      -0.00319284       2.71718774       0.00000000
