10
Lattice="16.28999089631971 0.0 0.0 0.0 16.28999089631971 0.0 0.0 0.0 34.3005442915855" Properties=species:S:1:pos:R:3:initial_magmoms:R:1 pbc="T T T"
Si      -1.19611347      -1.35536058      -1.47663926       0.00000000
Si       0.94089737      -1.87093908       1.14186576       0.00000000
Si       1.41653279       1.32131448      -1.41479534       0.00000000
Si      -1.83345972       0.80734869       1.41565286       0.00000000
Si      -2.47973289      -2.61764336       0.08938727       0.00000000
Si      -2.53774158       0.01541034      -2.81659077       0.00000000
Si      -2.56846452       2.78560629       0.17061100       0.00000000
Si       2.72624879      -2.82182059      -0.10317609       0.00000000
Si       0.18551867      -2.70998322      -2.83559328       0.00000000
Si       0.18022279       2.72877048      -2.83322654       0.00000000
