10
Lattice="16.28999089631971 0.0 0.0 0.0 16.28999089631971 0.0 0.0 0.0 34.3005442915855" Properties=species:S:1:pos:R:3:initial_magmoms:R:1 pbc="T T T"
Si      -0.24575094       1.01949336       2.09154546       0.00000000
Si       0.76919751       1.69663608      -1.45324627       0.00000000
Si      -2.00634156      -0.98614773      -1.44028066       0.00000000
Si       1.79095518      -0.74130903       1.95797906       0.00000000
Si       2.44364661      -2.29358313       0.18546315       0.00000000
Si       2.54329254       2.37206835      -0.00528229       0.00000000
Si       2.20279896       0.40247703      -2.84406552       0.00000000
Si      -0.51642558      -2.30156523      -2.82821866       0.00000000
Si       1.88607249       2.24811774       2.28596105       0.00000000
Si      -1.48370949      -0.38314080       3.58540360       0.00000000
