10
Lattice="16.28999089631971 0.0 0.0 0.0 16.28999089631971 0.0 0.0 0.0 34.3005442915855" Properties=species:S:1:pos:R:3:initial_magmoms:R:1 pbc="T T T"
Si       1.86341310      -0.86201793      -1.07395064       0.00000000
Si       0.15024267       1.13710716       2.07755083       0.00000000
Si      -0.79219899       2.10077469      -0.83525302       0.00000000
Si      -1.33980363      -1.91511756      -0.61963968       0.00000000
Si      -2.88003942      -0.82617993       0.95386437       0.00000000
Si      -0.09040950      -1.94571018      -2.64484785       0.00000000
Si      -1.67365089       0.84253509      -2.70233559       0.00000000
Si      -1.50819336       2.66462046       1.39157386       0.00000000
Si       1.34926812       2.89727424      -1.65472778       0.00000000
Si       2.97289242      -2.05043859       0.69407190       0.00000000
