10
Lattice="16.28999089631971 0.0 0.0 0.0 16.28999089631971 0.0 0.0 0.0 34.3005442915855" Properties=species:S:1:pos:R:3:initial_magmoms:R:1 pbc="T T T"
Si       0.00680922       0.81193432       2.16975074       0.00000000
Si      -1.65923424      -1.41252123      -0.82585467       0.00000000
Si       1.96599123      -1.28159850       0.08846115       0.00000000
Si      -0.94767727       1.70009771      -1.43348915       0.00000000
Si      -2.93592131       0.40054666      -1.66354303       0.00000000
Si       1.36839258       2.71869512       1.88721700       0.00000000
Si      -0.82435708      -2.24326236      -2.88255075       0.00000000
Si       0.72466065       2.45025220      -2.85878046       0.00000000
Si       1.59884721      -3.16395687       1.58197629       0.00000000
Si       3.77204724      -0.05196673       0.98638130       0.00000000
