10
Lattice="16.28999089631971 0.0 0.0 0.0 16.28999089631971 0.0 0.0 0.0 34.3005442915855" Properties=species:S:1:pos:R:3:initial_magmoms:R:1 pbc="T T T"
Si       1.35720135      -1.35645201      -1.36012024       0.00000000
Si      -1.35617508       1.35946566      -1.35953713       0.00000000
Si      -1.35772263      -1.36537893       1.37061622       0.00000000
Si       1.35391077       1.36989126       1.37466368       0.00000000
Si      -2.71313208      -2.71267596      -0.00006860       0.00000000
Si       2.71272483       2.71448415       0.00099472       0.00000000
Si      -2.71373481       2.71503801      -0.00188653       0.00000000
Si       0.00011403      -2.71344159      -2.71674183       0.00000000
Si       2.71634121      -2.71461447      -0.00113192       0.00000000
Si      -2.71494027       0.00171045      -2.71643312       0.00000000
