10
Lattice="16.28999089631971 0.0 0.0 0.0 16.28999089631971 0.0 0.0 0.0 34.3005442915855" Properties=species:S:1:pos:R:3:initial_magmoms:R:1 pbc="T T T"
Si      -0.58976316       2.21614047       0.46580165       0.00000000
Si       0.44554779       0.47039004      -2.32664152       0.00000000
Si      -2.01546396      -1.28376603       0.51124990       0.00000000
Si       2.11480038      -0.46439532       1.16055956       0.00000000
Si       2.44654623      -2.66015700       0.40073348       0.00000000
Si       1.38292326       3.39951123      -0.13895158       0.00000000
Si       2.00814975       2.25422649      -2.11778539       0.00000000
Si      -1.20979314       2.29750902       2.67647297       0.00000000
Si      -1.47145941       1.87771572      -2.90210207       0.00000000
Si      -2.37571731       2.86062174      -0.91887779       0.00000000
