10
Lattice="16.28999089631971 0.0 0.0 0.0 16.28999089631971 0.0 0.0 0.0 34.3005442915855" Properties=species:S:1:pos:R:3:initial_magmoms:R:1 pbc="T T T"
Si       1.56260196       1.78383645       0.20885613       0.00000000
Si      -0.44554779      -0.47039004       2.32664152       0.00000000
Si      -1.91700720       1.40732568      -0.57546055       0.00000000
Si       1.93065822      -1.96320564      -1.03855246       0.00000000
Si      -0.20116521      -3.19183002      -1.23296805       0.00000000
Si      -1.03531095       1.74575043       2.79244317       0.00000000
Si      -0.12702942       1.61142309      -3.38460810       0.00000000
Si       0.93737547       2.92912119       2.18768994       0.00000000
Si      -3.62246269      -0.04059468      -1.52404264       0.00000000
Si      -2.82126510       2.39023170       1.40776373       0.00000000
