10
Lattice="16.28999089631971 0.0 0.0 0.0 16.28999089631971 0.0 0.0 0.0 34.3005442915855" Properties=species:S:1:pos:R:3:initial_magmoms:R:1 pbc="T T T"
Si      -1.35601218      -1.35633798      -1.35751340       0.00000000
Si      -1.35501849       1.35627282       1.35857672       0.00000000
Si       1.35835794       1.35892809      -1.35686169       0.00000000
Si       1.35966114      -1.35721764       1.35799361       0.00000000
Si       0.00573408      -2.71168227       2.71334607       0.00000000
Si      -2.71397427      -2.71228500       0.00020580       0.00000000
Si       0.00141723      -2.71370223      -2.71482100       0.00000000
Si      -2.71410133       0.00175932      -2.71482100       0.00000000
Si       2.71722087      -2.71278999       0.00034301       0.00000000
Si       2.71567332       2.71461447       0.00219524       0.00000000
