10
Lattice="16.28999089631971 0.0 0.0 0.0 16.28999089631971 0.0 0.0 0.0 34.3005442915855" Properties=species:S:1:pos:R:3:initial_magmoms:R:1 pbc="T T T"
Si       0.03155373      -2.28002985       0.48182001       0.00000000
Si      -2.21159556       0.33881571       0.82527156       0.00000000
Si       1.66281804       1.43553574       1.05343890       0.00000000
Si       1.24463745       0.80205444      -2.15417829       0.00000000
Si      -1.26446238      -1.72051722      -2.12941328       0.00000000
Si       3.10388031       1.61506295      -0.83600763       0.00000000
Si      -2.97575946       2.10223006      -0.77310040       0.00000000
Si       2.29527729      -2.87098218      -0.62571088       0.00000000
Si       2.25279297       0.53823789       3.13716383       0.00000000
Si      -3.71553723      -1.60839315       0.56589070       0.00000000
