10
Lattice="16.28999089631971 0.0 0.0 0.0 16.28999089631971 0.0 0.0 0.0 34.3005442915855" Properties=species:S:1:pos:R:3:initial_magmoms:R:1 pbc="T T T"
Si      -0.22045257       2.27866149      -0.27608524       0.00000000
Si       1.71717777      -0.23597694       1.59219786       0.00000000
Si       0.62522649      -1.14528474      -1.97883381       0.00000000
Si      -1.97268642      -1.18337076       0.60475323       0.00000000
Si      -1.10151351       2.76431526       1.87281076       0.00000000
Si       2.51470359      -2.35216197       0.94758737       0.00000000
Si       2.78153379      -1.81545534      -1.34622851       0.00000000
Si      -1.38292326      -3.39951123       0.13895158       0.00000000
Si      -1.81750788       2.64591954      -1.90618521       0.00000000
Si      -0.93737547      -2.92912119      -2.18768994       0.00000000
