10
Lattice="16.28999089631971 0.0 0.0 0.0 16.28999089631971 0.0 0.0 0.0 34.3005442915855" Properties=species:S:1:pos:R:3:initial_magmoms:R:1 pbc="T T T"
Si       1.35681039      -1.35563598       1.36183527       0.00000000
Si      -1.35997065       1.36128362       1.36080625       0.00000000
Si       1.35645201       1.35895415      -1.38347550       0.00000000
Si      -1.36151820      -1.36203689      -1.39221528       0.00000000
Si       2.71173114      -2.71483994       0.00185223       0.00000000
Si      -2.71667841      -2.71400915       0.00013720       0.00000000
Si       2.71241532       2.71977188       0.00216094       0.00000000
Si       2.71274112       0.00136999       2.71952017       0.00000000
Si      -0.00162900      -2.71376480       2.71917717       0.00000000
Si      -0.00237834       2.71674194       2.71900567       0.00000000
