10
Lattice="16.28999089631971 0.0 0.0 0.0 16.28999089631971 0.0 0.0 0.0 34.3005442915855" Properties=species:S:1:pos:R:3:initial_magmoms:R:1 pbc="T T T"
Si       1.88722908      -0.77988375      -1.09569720       0.00000000
Si       0.39910500      -0.15442920       2.31223528       0.00000000
Si      -0.69633234       2.27075011      -0.10458242       0.00000000
Si      -1.32861240      -1.45525086      -1.35741050       0.00000000
Si      -1.63277928       0.77656059       2.92566656       0.00000000
Si       3.53326842       0.62105625      -0.32276830       0.00000000
Si      -1.34399016       2.41590215      -2.31216668       0.00000000
Si       0.37853073      -2.45760714       2.66854954       0.00000000
Si       1.47035169      -0.27826578      -3.34077198       0.00000000
Si       2.76703569       2.14818089       1.27237940       0.00000000
