10
Lattice="16.28999089631971 0.0 0.0 0.0 16.28999089631971 0.0 0.0 0.0 34.3005442915855" Properties=species:S:1:pos:R:3:initial_magmoms:R:1 pbc="T T T"
Si      -1.80615375      -1.18420155      -1.05755497       0.00000000
Si      -0.45362763      -1.17006183       2.08983043       0.00000000
Si       0.36400005       2.41816905       0.55584063       0.00000000
Si       2.09652300      -0.02661786      -1.39222557       0.00000000
Si       0.51517125      -3.01506723       0.90824462       0.00000000
Si       2.74172103       1.84612941      -0.06287293       0.00000000
Si       2.61715140       0.88666470       2.17962931       0.00000000
Si       0.67658886       0.19561032       3.64236796       0.00000000
Si       1.73304423      -3.18881637      -1.10169980       0.00000000
Si      -3.75647400       0.07074747      -1.03471080       0.00000000
