10
Lattice="16.28999089631971 0.0 0.0 0.0 16.28999089631971 0.0 0.0 0.0 34.3005442915855" Properties=species:S:1:pos:R:3:initial_magmoms:R:1 pbc="T T T"
Si      -1.35643572      -1.35674197       1.35713609       0.00000000
Si      -1.35778779       1.35752715      -1.35734190       0.00000000
Si       1.35835794       1.35742941       1.35689599       0.00000000
Si       1.35729909      -1.35804680      -1.35758200       0.00000000
Si       2.71269225       0.00200367       2.71344897       0.00000000
Si       2.71487511      -0.00042354      -2.71341467       0.00000000
Si       0.00105885      -2.71529995      -2.71396348       0.00000000
Si       2.71461447      -2.71473958      -0.00048021       0.00000000
Si       2.71484253       2.71458189       0.00000000       0.00000000
Si       0.00107514       2.71378368       2.71574711       0.00000000
