10
Lattice="16.28999089631971 0.0 0.0 0.0 16.28999089631971 0.0 0.0 0.0 34.3005442915855" Properties=species:S:1:pos:R:3:initial_magmoms:R:1 pbc="T T T"
Si       0.12150711      -2.25275224      -0.68024877       0.00000000
Si       1.91172924       1.24188444       0.66687155       0.00000000
Si      -1.04927148      -0.63262215       2.05275152       0.00000000
Si      -1.10947932       1.18842066      -1.76802254       0.00000000
Si      -2.97289242       2.05043859      -0.69407190       0.00000000
Si       0.52027002      -2.16048243       2.95941831       0.00000000
Si       1.21500594       2.90414862       2.21681112       0.00000000
Si       0.24553917      -3.70963115       1.19763847       0.00000000
Si      -1.90557162      -3.05899226      -1.57278374       0.00000000
Si      -2.90937771      -2.03152264       1.70377759       0.00000000
