10
Lattice="16.28999089631971 0.0 0.0 0.0 16.28999089631971 0.0 0.0 0.0 34.3005442915855" Properties=species:S:1:pos:R:3:initial_magmoms:R:1 pbc="T T T"
Si      -0.45170541       1.44904437       1.75992761       0.00000000
Si      -1.86010623      -1.39890049      -0.34897393       0.00000000
Si       1.56954150      -1.52786028       0.90666679       0.00000000
Si       1.04927148       0.63262215      -2.05275152       0.00000000
Si       1.17077859      -1.62013009      -2.73300030       0.00000000
Si       1.29481065      -3.07700900      -0.85511305       0.00000000
Si       1.68467922       2.45444688       2.15445269       0.00000000
Si      -0.97655292      -3.58286237      -0.15280901       0.00000000
Si      -2.40940503       2.63541249       1.17822435       0.00000000
Si       2.96100072       1.87450659      -1.38587997       0.00000000
