10
Lattice="16.28999089631971 0.0 0.0 0.0 16.28999089631971 0.0 0.0 0.0 34.3005442915855" Properties=species:S:1:pos:R:3:initial_magmoms:R:1 pbc="T T T"
Si      -1.35736425       1.35742941       1.35747910       0.00000000
Si       1.35778779      -1.35752715       1.35734190       0.00000000
Si      -1.35682668      -1.35777150      -1.35905693       0.00000000
Si       1.35925389       1.35858600      -1.35792501       0.00000000
Si      -0.00027693       2.71441899       2.71410068       0.00000000
Si       0.00135207      -2.71426912       2.71447799       0.00000000
Si       2.71526607       2.71467963      -0.00013720       0.00000000
Si      -2.71490769       2.71533123       0.00017150       0.00000000
Si      -2.71634121      -0.00004887       2.71403208       0.00000000
Si       2.71614573      -0.00009774       2.71423789       0.00000000
