10
Lattice="16.28999089631971 0.0 0.0 0.0 16.28999089631971 0.0 0.0 0.0 34.3005442915855" Properties=species:S:1:pos:R:3:initial_magmoms:R:1 pbc="T T T"
Si      -1.35708732      -1.35698958      -1.35662159       0.00000000
Si       1.35754344       1.35764118      -1.35669019       0.00000000
Si      -1.35720135       1.35645201       1.36012024       0.00000000
Si       1.35913986      -1.35816246       1.35898832       0.00000000
Si       0.00027693      -2.71441899      -2.71410068       0.00000000
Si      -2.71463076       0.00091224      -2.71392918       0.00000000
Si      -2.71337643       2.71591767       0.00058311       0.00000000
Si       0.00006516       2.71560816      -2.71375768       0.00000000
Si       2.71554300       0.00026064      -2.71423789       0.00000000
Si      -2.71606428      -2.71446786      -0.00006860       0.00000000
