10
Lattice="16.28999089631971 0.0 0.0 0.0 16.28999089631971 0.0 0.0 0.0 34.3005442915855" Properties=species:S:1:pos:R:3:initial_magmoms:R:1 pbc="T T T"
Si       1.33951041       1.36969578      -1.38906992       0.00000000
Si      -1.37622807      -1.34356662      -1.38711479       0.00000000
Si      -1.24994799       1.43050635       1.44854710       0.00000000
Si       1.46020302      -1.41200091       1.54613220       0.00000000
Si       2.69975799      -2.67807111      -0.03183092       0.00000000
Si       2.68814322       2.72360655      -0.01293131       0.00000000
Si      -2.74453920      -2.68850160      -0.00926115       0.00000000
Si       2.69679321       0.01334151      -2.74792104       0.00000000
Si      -0.01800045      -2.70082987      -2.74768094       0.00000000
Si      -2.73455343       2.71893132      -0.01732178       0.00000000
