10
Lattice="16.28999089631971 0.0 0.0 0.0 16.28999089631971 0.0 0.0 0.0 34.3005442915855" Properties=species:S:1:pos:R:3:initial_magmoms:R:1 pbc="T T T"
Si      -0.13175352      -1.72353087      -1.56287087       0.00000000
Si       2.23189290      -0.16809651       0.69938849       0.00000000
Si      -1.51778817      -0.85434534       1.59168335       0.00000000
Si       0.24814557       2.11488183      -1.10687918       0.00000000
Si      -1.58579892       1.08194922       2.86063269       0.00000000
Si       1.82083104       1.16530515      -2.74685772       0.00000000
Si       1.38070782      -3.26256120      -0.54675098       0.00000000
Si       0.44784468      -0.64120698      -3.55326397       0.00000000
Si       3.37372416       0.02689479      -1.40625450       0.00000000
Si      -1.70116470       2.22332436      -2.43434529       0.00000000
