10
Lattice="16.28999089631971 0.0 0.0 0.0 16.28999089631971 0.0 0.0 0.0 34.3005442915855" Properties=species:S:1:pos:R:3:initial_magmoms:R:1 pbc="T T T"
Si      -0.62853336       2.33186463       0.05892837       0.00000000
Si       1.93966659      -0.66973077       1.28839776       0.00000000
Si       1.11298167      -1.20071961      -1.85274494       0.00000000
Si      -2.24034741      -0.68548320       0.83442981       0.00000000
Si      -2.14081551       1.86670368      -1.78867148       0.00000000
Si      -1.90135251      -3.00736206       1.19818728       0.00000000
Si       1.37142252       3.57166395      -0.31916674       0.00000000
Si       2.77192269      -2.71871955       0.31069450       0.00000000
Si      -1.69285680       2.92526046       2.04609721       0.00000000
Si       3.20412897       1.99267425      -1.23632951       0.00000000
