10
Lattice="16.28999089631971 0.0 0.0 0.0 16.28999089631971 0.0 0.0 0.0 34.3005442915855" Properties=species:S:1:pos:R:3:initial_magmoms:R:1 pbc="T T T"
Si       0.25596477      -2.16841077       0.82335073       0.00000000
Si       1.97320770       0.42792201      -1.20827165       0.00000000
Si      -1.84003695       0.48547458      -1.40697481       0.00000000
Si       0.22307526       1.38660480       1.93122462       0.00000000
Si      -1.57338594      -2.49691491       2.27570518       0.00000000
Si       2.60398908       1.49820759       2.24908795       0.00000000
Si       1.49915241       2.40083649      -2.49022091       0.00000000
Si      -2.63756277       2.60165961      -0.76236432       0.00000000
Si       2.20527504      -2.27685330       2.15081683       0.00000000
Si      -3.39998364      -1.21096602       1.32770621       0.00000000
