10
Lattice="16.28999089631971 0.0 0.0 0.0 16.28999089631971 0.0 0.0 0.0 34.3005442915855" Properties=species:S:1:pos:R:3:initial_magmoms:R:1 pbc="T T T"
Si      -1.04552478      -2.07099657       0.29766029       0.00000000
Si       1.82935071       0.32850414      -1.45235446       0.00000000
Si       0.54434664       0.76818753       2.20988240       0.00000000
Si      -1.82659770       1.28594889      -0.94799897       0.00000000
Si      -3.15887535      -1.29565773       1.08170257       0.00000000
Si       1.57338594       2.49691491      -2.27570518       0.00000000
Si       1.06202655       3.10129020       1.79244454       0.00000000
Si       3.77866098       0.22006161      -0.12488835       0.00000000
Si      -0.69532236      -3.43738548      -1.55710838       0.00000000
Si      -1.36831113       0.76326795       3.64851663       0.00000000
