10
Lattice="16.28999089631971 0.0 0.0 0.0 16.28999089631971 0.0 0.0 0.0 34.3005442915855" Properties=species:S:1:pos:R:3:initial_magmoms:R:1 pbc="T T T"
Si       1.35525653      -1.35443205      -1.35586697       0.00000000
Si      -1.35827044      -1.35609363       1.35658728       0.00000000
Si       1.35659231       1.35821133       1.35665589       0.00000000
Si      -1.35730933       1.35500220      -1.36231548       0.00000000
Si       2.71361773      -2.71134018      -0.00188653       0.00000000
Si      -0.00305647      -2.69068446      -2.73649552       0.00000000
Si      -0.00107878      -2.71402803       2.71379198       0.00000000
Si       2.71425304       0.00115659       2.71437509       0.00000000
Si      -2.71578130      -2.71399545       0.00058311       0.00000000
Si      -2.71581388       0.00100998       2.71399778       0.00000000
