10
Lattice="16.28999089631971 0.0 0.0 0.0 16.28999089631971 0.0 0.0 0.0 34.3005442915855" Properties=species:S:1:pos:R:3:initial_magmoms:R:1 pbc="T T T"
Si       1.35695700      -1.35703845      -1.35806221       0.00000000
Si      -1.35766073       1.35705474      -1.35771920       0.00000000
Si       1.35830907       1.35747828       1.35672449       0.00000000
Si      -1.35869351      -1.35865116       1.35747910       0.00000000
Si      -2.71425304      -0.00115659      -2.71437509       0.00000000
Si      -0.00063531      -2.71249677      -2.71626162       0.00000000
Si       2.71469592      -2.71490769      -0.00034301       0.00000000
Si       0.00226431       2.71384884       2.71605582       0.00000000
Si      -0.00057015       2.71526607      -2.71464949       0.00000000
Si       2.71487511       2.71538010       0.00006860       0.00000000
