10
Lattice="16.28999089631971 0.0 0.0 0.0 16.28999089631971 0.0 0.0 0.0 34.3005442915855" Properties=species:S:1:pos:R:3:initial_magmoms:R:1 pbc="T T T"
Si       0.27473085       1.54914872       1.76177984       0.00000000
Si      -0.12403206       1.45687890      -1.87788725       0.00000000
Si      -2.27136357      -0.50585337       0.70230404       0.00000000
Si       1.89421749      -0.89464680      -1.29844783       0.00000000
Si       0.06364503      -2.24243253      -1.17548031       0.00000000
Si      -1.29481065       3.07700900       0.85511305       0.00000000
Si      -2.15111079       0.65063889      -2.77042221       0.00000000
Si      -1.66066776      -1.70002440      -2.69852823       0.00000000
Si       1.80213012       0.67546485      -3.04575283       0.00000000
Si      -3.15491688       1.67810850       0.50613911       0.00000000
