10
Lattice="16.28999089631971 0.0 0.0 0.0 16.28999089631971 0.0 0.0 0.0 34.3005442915855" Properties=species:S:1:pos:R:3:initial_magmoms:R:1 pbc="T T T"
Si       1.35720528       1.35636669       1.35744480       0.00000000
Si      -1.35770634      -1.35853026       1.35744480       0.00000000
Si      -1.35992178       1.35465299      -1.35943423       0.00000000
Si       1.35755551      -1.35908412      -1.36173237       0.00000000
Si      -0.00043323       2.71352080       2.71461519       0.00000000
Si      -2.71513575       2.71355338       0.00140632       0.00000000
Si       2.71489859      -0.00103038       2.71461519       0.00000000
Si      -2.71539639      -0.00076266       2.71434079       0.00000000
Si      -2.71544526      -2.71434696       0.00058311       0.00000000
Si       2.71426328       2.71620865      -0.00106332       0.00000000
