10
Lattice="16.28999089631971 0.0 0.0 0.0 16.28999089631971 0.0 0.0 0.0 34.3005442915855" Properties=species:S:1:pos:R:3:initial_magmoms:R:1 pbc="T T T"
Si       1.35790182      -1.35481244       1.35789071       0.00000000
Si      -1.35677781      -1.35674980      -1.35741050       0.00000000
Si       1.35818535       1.35753367      -1.35713609       0.00000000
Si      -1.35870003       1.35999346       1.35651868       0.00000000
Si       2.70545527       0.00108654       2.71355188       0.00000000
Si      -2.71006956       0.02400657       2.71605582       0.00000000
Si      -2.71270854      -2.71415902       0.00017150       0.00000000
Si      -2.71303434       2.71541920      -0.00003430       0.00000000
Si      -2.71409319      -0.00005702      -2.71451229       0.00000000
Si       0.00091224      -2.71451740      -2.71430649       0.00000000
