10
Lattice="16.28999089631971 0.0 0.0 0.0 16.28999089631971 0.0 0.0 0.0 34.3005442915855" Properties=species:S:1:pos:R:3:initial_magmoms:R:1 pbc="T T T"
Si      -1.35136953      -1.33598688       1.35953713       0.00000000
Si      -1.35433431       1.35542574      -1.35655298       0.00000000
Si       1.35870003      -1.35999346      -1.35651868       0.00000000
Si       1.34089506       1.36648665       1.37603570       0.00000000
Si       0.03202614      -2.56036674       2.76592884       0.00000000
Si       2.68252317      -0.00428427       2.71598722       0.00000000
Si      -2.71161711       2.71178001       0.00229814       0.00000000
Si       0.00215028       2.71257822      -2.71344897       0.00000000
Si      -2.71269225      -0.00200367      -2.71344897       0.00000000
Si       2.71557558       2.71365336       0.00171503       0.00000000
