10
Lattice="16.28999089631971 0.0 0.0 0.0 16.28999089631971 0.0 0.0 0.0 34.3005442915855" Properties=species:S:1:pos:R:3:initial_magmoms:R:1 pbc="T T T"
Si      -1.28591631       1.09959129       1.64824498       0.00000000
Si       1.27668707      -1.81306790       0.83768836       0.00000000
Si       1.98824404       1.29955104       0.23005388       0.00000000
Si      -0.92014065      -0.36293143      -2.18446568       0.00000000
Si       2.93592131      -0.40054666       1.66354303       0.00000000
Si       2.11156423      -2.64380903      -1.21900772       0.00000000
Si      -2.83012686       2.31068763       0.38824808       0.00000000
Si       1.40599057       3.24058599       1.38039188       0.00000000
Si      -1.50278508       3.23936424      -1.33923120       0.00000000
Si      -2.14454592      -0.30526808       3.28455336       0.00000000
