10
Lattice="16.28999089631971 0.0 0.0 0.0 16.28999089631971 0.0 0.0 0.0 34.3005442915855" Properties=species:S:1:pos:R:3:initial_magmoms:R:1 pbc="T T T"
Si      -0.98564274      -0.95518044       1.89963381       0.00000000
Si      -1.51246134       1.53903033      -1.01611989       0.00000000
Si       0.44944110      -1.65686567      -1.66014727       0.00000000
Si       1.38939039       0.90684801       1.77841561       0.00000000
Si       2.53343709       1.20743109      -1.88241492       0.00000000
Si       2.52480339      -2.16655045       0.80805267       0.00000000
Si       0.85118508       3.09446469       1.24613947       0.00000000
Si       3.46827036      -0.25971147      -0.32520364       0.00000000
Si       1.30807071      -0.25200630      -3.29645565       0.00000000
Si      -1.38070782       3.26256120       0.54675098       0.00000000
