10
Lattice="16.28999089631971 0.0 0.0 0.0 16.28999089631971 0.0 0.0 0.0 34.3005442915855" Properties=species:S:1:pos:R:3:initial_magmoms:R:1 pbc="T T T"
Si      -0.76597209      -1.81555375       1.40870840       0.00000000
Si       1.89403408       0.82819012       1.32370132       0.00000000
Si       0.90754101      -2.03082610      -1.32784341       0.00000000
Si      -1.62217449       2.05626064      -0.01687588       0.00000000
Si       0.98680326      -0.53665843      -3.18206327       0.00000000
Si      -2.05791570      -0.47677665       2.78119743       0.00000000
Si       0.66455055       2.24558302       2.75284458       0.00000000
Si       3.00802085       1.97591836      -0.46309191       0.00000000
Si      -3.24395802       0.97327863       1.32903848       0.00000000
Si      -2.27921535      -2.98677217       0.11853524       0.00000000
