10
Lattice="16.28999089631971 0.0 0.0 0.0 16.28999089631971 0.0 0.0 0.0 34.3005442915855" Properties=species:S:1:pos:R:3:initial_magmoms:R:1 pbc="T T T"
Si      -1.23101526       1.25123490      -1.56249357       0.00000000
Si      -1.76396658      -1.07888670       1.14292908       0.00000000
Si       1.80247547      -1.33310844      -0.80222158       0.00000000
Si       0.78058748       1.50719967       1.77477975       0.00000000
Si      -0.41846078      -2.41246755       2.62577673       0.00000000
Si      -1.31074620       2.65932621       2.10667201       0.00000000
Si       3.21297770      -1.08462078       1.38454224       0.00000000
Si      -3.00151788       0.93698451       1.95574953       0.00000000
Si       3.04043402       0.06952572      -2.29607972       0.00000000
Si       1.75070585      -1.70171856       3.20429004       0.00000000
