10
Lattice="16.28999089631971 0.0 0.0 0.0 16.28999089631971 0.0 0.0 0.0 34.3005442915855" Properties=species:S:1:pos:R:3:initial_magmoms:R:1 pbc="T T T"
Si      -0.57959820      -1.08232389       1.99039310       0.00000000
Si      -1.91218536       1.22912937      -0.60749728       0.00000000
Si       0.69672330      -1.66226418      -1.54993956       0.00000000
Si       1.37298636       1.80651213       0.80640625       0.00000000
Si      -1.18438074       2.03291055      -2.71399778       0.00000000
Si      -0.44784468       0.64120698       3.55326397       0.00000000
Si       2.24093385      -2.87336052      -0.28994266       0.00000000
Si       2.92587948       0.66810177       2.14700947       0.00000000
Si      -0.19969911       2.75608881       2.44638479       0.00000000
Si       2.34978363       2.61708624      -1.22782297       0.00000000
