10
Lattice="16.28999089631971 0.0 0.0 0.0 16.28999089631971 0.0 0.0 0.0 34.3005442915855" Properties=species:S:1:pos:R:3:initial_magmoms:R:1 pbc="T T T"
Si       1.80537183      -1.24126542      -0.82780980       0.00000000
Si      -1.43581689      -1.03951377      -1.55024827       0.00000000
Si      -0.24246036      -0.90873765       2.25783459       0.00000000
Si      -0.06121782       2.41479702      -0.56637090       0.00000000
Si      -1.56739122      -2.81305494       1.75289600       0.00000000
Si      -2.26628109       0.81085104      -2.80955915       0.00000000
Si       2.02160529      -0.69051681      -3.16957787       0.00000000
Si      -2.83845105      -2.55254526      -0.31175782       0.00000000
Si       3.85195737      -0.40140189      -0.08695193       0.00000000
Si      -2.33429184       2.74714560      -1.54060981       0.00000000
