10
Lattice="16.28999089631971 0.0 0.0 0.0 16.28999089631971 0.0 0.0 0.0 34.3005442915855" Properties=species:S:1:pos:R:3:initial_magmoms:R:1 pbc="T T T"
Si      -1.35685926      -1.35620766      -1.35806221       0.00000000
Si       1.35708306      -1.35720135       1.35737620       0.00000000
Si      -1.35778779       1.35783666       1.35806221       0.00000000
Si       1.35840100       1.35842310      -1.35741050       0.00000000
Si       2.71483831       0.00125433       2.71475240       0.00000000
Si      -2.71521720       0.00022806       2.71468379       0.00000000
Si      -2.71503801      -2.71490769       0.00006860       0.00000000
Si       2.71471125       2.71529865      -0.00027440       0.00000000
Si       2.71473243      -2.71533123       0.00020580       0.00000000
Si      -2.71528236       2.71536381       0.00037731       0.00000000
