10
Lattice="16.28999089631971 0.0 0.0 0.0 16.28999089631971 0.0 0.0 0.0 34.3005442915855" Properties=species:S:1:pos:R:3:initial_magmoms:R:1 pbc="T T T"
Si       0.58225347      -1.94103495      -1.15033800       0.00000000
Si      -1.46654050      -0.68155731       1.68189383       0.00000000
Si       2.16916663       0.71074899       0.57851330       0.00000000
Si      -1.34550580       1.33358085      -1.48284766       0.00000000
Si      -2.69190688      -2.14099470       0.26785310       0.00000000
Si       1.66546354       2.83568175       1.29127901       0.00000000
Si       0.41846078       2.41246755      -2.62577673       0.00000000
Si       2.25459139      -1.19088045      -2.57562931       0.00000000
Si      -2.00696125       1.40046759       2.70480523       0.00000000
Si       2.89832332      -0.92243754       2.17036815       0.00000000
