10
Lattice="16.28999089631971 0.0 0.0 0.0 16.28999089631971 0.0 0.0 0.0 34.3005442915855" Properties=species:S:1:pos:R:3:initial_magmoms:R:1 pbc="T T T"
Si      -1.35773892      -1.35581670      -1.35686169       0.00000000
Si      -1.35769005       1.35776760       1.35689599       0.00000000
Si       1.35756969      -1.35773892       1.35754770       0.00000000
Si       1.35770634       1.35853026      -1.35744480       0.00000000
Si      -2.71362078       0.00035838       2.71447799       0.00000000
Si      -0.00091224       2.71451740       2.71430649       0.00000000
Si      -2.71669959       0.00035838      -2.71269436       0.00000000
Si      -2.71500543       2.71446039      -0.00020580       0.00000000
Si       2.71491162       2.71489696       0.00000000       0.00000000
Si       2.71492302      -2.71507059      -0.00044591       0.00000000
