10
Lattice="16.28999089631971 0.0 0.0 0.0 16.28999089631971 0.0 0.0 0.0 34.3005442915855" Properties=species:S:1:pos:R:3:initial_magmoms:R:1 pbc="T T T"
Si      -2.02505618      -1.18812744      -0.30047294       0.00000000
Si       1.64736860       0.24708672      -1.71399916       0.00000000
Si      -0.82669258       2.14202097       0.68014587       0.00000000
Si       0.92651981      -1.40066307       1.72758218       0.00000000
Si       3.39445481       1.06026723      -0.33645423       0.00000000
Si       2.15107169      -1.87784604      -2.42676486       0.00000000
Si      -1.48463543      -3.27015234      -1.32338434       0.00000000
Si       1.05117089      -0.10295280       3.70278013       0.00000000
Si      -1.48720925       3.29817114      -1.36012024       0.00000000
Si       0.99915692       3.46258611       1.43774242       0.00000000
