10
Lattice="16.28999089631971 0.0 0.0 0.0 16.28999089631971 0.0 0.0 0.0 34.3005442915855" Properties=species:S:1:pos:R:3:initial_magmoms:R:1 pbc="T T T"
Si      -1.35836120       1.35690813      -1.35398044       0.00000000
Si       1.35759231       1.35545832       1.35819941       0.00000000
Si      -1.35705800      -1.35984196       1.35850812       0.00000000
Si       1.35997065      -1.36128362      -1.36080625       0.00000000
Si      -2.71361773       2.71134018       0.00188653       0.00000000
Si       0.00081450       2.69193879      -2.73447865       0.00000000
Si       0.00063531       2.71249677       2.71626162       0.00000000
Si      -2.71469651      -0.00268785       2.71567851       0.00000000
Si      -2.71426328      -2.71620865       0.00106332       0.00000000
Si       2.71533123      -0.00241092       2.71591861       0.00000000
