10
Lattice="16.28999089631971 0.0 0.0 0.0 16.28999089631971 0.0 0.0 0.0 34.3005442915855" Properties=species:S:1:pos:R:3:initial_magmoms:R:1 pbc="T T T"
Si      -1.35593858       1.35384561       1.35922843       0.00000000
Si       1.35796209       1.35594702      -1.35771920       0.00000000
Si      -1.35775526      -1.35845568      -1.35737620       0.00000000
Si       1.35981915      -1.35979146       1.35922843       0.00000000
Si      -0.01580293      -2.70651834       2.71564421       0.00000000
Si       2.71397427       2.71228500      -0.00020580       0.00000000
Si      -2.71417042       2.71389771       0.00099472       0.00000000
Si      -0.00012706       2.71404432      -2.71502680       0.00000000
Si      -2.71483831      -0.00125433      -2.71475240       0.00000000
Si       2.71539150      -0.00141723      -2.71502680       0.00000000
