10
Lattice="16.28999089631971 0.0 0.0 0.0 16.28999089631971 0.0 0.0 0.0 34.3005442915855" Properties=species:S:1:pos:R:3:initial_magmoms:R:1 pbc="T T T"
Si       1.35094599      -1.35534592      -1.35905693       0.00000000
Si      -1.36403663       1.35957969      -1.35693029       0.00000000
Si      -1.37340501      -1.35340089       1.35569547       0.00000000
Si       1.34752509       1.36247931       1.38855541       0.00000000
Si       2.70640431      -2.70908306       0.00109762       0.00000000
Si       2.70935280       0.00332316      -2.71475240       0.00000000
Si      -0.00534312      -2.71150495      -2.71499250       0.00000000
Si      -2.72095847      -2.70929987       0.00003430       0.00000000
Si       2.71134018       2.71922454       0.00202373       0.00000000
Si      -0.00534312       2.71823085      -2.71440939       0.00000000
