10
Lattice="16.28999089631971 0.0 0.0 0.0 16.28999089631971 0.0 0.0 0.0 34.3005442915855" Properties=species:S:1:pos:R:3:initial_magmoms:R:1 pbc="T T T"
Si       1.35849966      -1.35586557       1.36053185       0.00000000
Si      -1.35755551       1.35908412       1.36173237       0.00000000
Si      -1.35047236      -1.35845568      -1.38664144       0.00000000
Si       1.35516021       1.35197226      -1.39235248       0.00000000
Si      -2.71449622      -2.71305063      -0.00003430       0.00000000
Si       2.71667841       2.71400915      -0.00013720       0.00000000
Si      -2.71747729       2.71373711       0.00229814       0.00000000
Si       2.71491909      -2.71658556       0.00034301       0.00000000
Si      -0.00033883      -2.71451673       2.71873126       0.00000000
Si       2.71504941       0.00024435       2.71903997       0.00000000
