10
Lattice="16.28999089631971 0.0 0.0 0.0 16.28999089631971 0.0 0.0 0.0 34.3005442915855" Properties=species:S:1:pos:R:3:initial_magmoms:R:1 pbc="T T T"
Si       1.35501849      -1.35627282      -1.35857672       0.00000000
Si       1.35594702       1.35723393       1.36145796       0.00000000
Si      -1.35807449       1.36190916      -1.35744480       0.00000000
Si      -1.37108206      -1.34659656       1.39713055       0.00000000
Si      -0.13932837       2.59457346       2.67194529       0.00000000
Si       2.71467963      -2.71349046      -0.00058311       0.00000000
Si      -0.00099369      -2.71261080      -2.71609012       0.00000000
Si       2.71337643       0.00265527      -2.71543841       0.00000000
Si      -2.71489436      -2.71471221       0.00085751       0.00000000
Si       2.71034649       2.72047887       0.00030871       0.00000000
