10
Lattice="16.28999089631971 0.0 0.0 0.0 16.28999089631971 0.0 0.0 0.0 34.450931932916035" Properties=species:S:1:pos:R:3:initial_magmoms:R:1 pbc="T T T"
Si       1.31568140      -1.36355512       1.38627182       0.00000000
Si      -1.34882045      -1.35951520      -1.36584241       0.00000000
Si       1.36784198       1.35145750      -1.36598021       0.00000000
Si      -1.33874871       1.31731366       1.55876774       0.00000000
Si      -2.20767360      -0.68768072       2.54671766       0.00000000
Si       2.27540675       0.46500457       2.60270046       0.00000000
Si      -0.39665010      -2.29614133       2.86910967       0.00000000
Si       0.49174949       2.24441014       3.02789410       0.00000000
Si      -2.70130947       2.70820273       0.03048909       0.00000000
Si      -2.70551229      -0.00718063      -2.72503579       0.00000000
