10
Lattice="16.28999089631971 0.0 0.0 0.0 16.28999089631971 0.0 0.0 0.0 34.450931932916035" Properties=species:S:1:pos:R:3:initial_magmoms:R:1 pbc="T T T"
Si       1.33783254       1.34943591      -1.38454928       0.00000000
Si      -1.37585340      -1.36603479      -1.38275783       0.00000000
Si      -1.30790781       1.49078424       1.37283595       0.00000000
Si       1.49475411      -1.23669233       1.48779878       0.00000000
Si      -0.23869737      -2.26484987       2.76878850       0.00000000
Si       2.70207117       2.69860629      -0.00575331       0.00000000
Si       2.69431713      -2.72922890      -0.00124023       0.00000000
Si       2.69827560      -0.00735982      -2.74219236       0.00000000
Si      -0.01558953       2.70776127      -2.74391491       0.00000000
Si      -2.73512358       2.72348112      -0.01526177       0.00000000
