10
Lattice="16.28999089631971 0.0 0.0 0.0 16.28999089631971 0.0 0.0 0.0 34.450931932916035" Properties=species:S:1:pos:R:3:initial_magmoms:R:1 pbc="T T T"
Si       0.07038909       2.31052799      -0.41799339       0.00000000
Si      -2.08285569      -0.60352821       0.93720368       0.00000000
Si       1.65742605      -0.87403018       1.45631061       0.00000000
Si       0.74872098      -0.46660424      -2.24086212       0.00000000
Si       2.14083180       1.54955693      -1.81763218       0.00000000
Si      -2.79668675       1.61154038       1.44797348       0.00000000
Si      -2.25981396       2.79202781      -0.78586065       0.00000000
Si       0.75171834       3.23865074       1.62735958       0.00000000
Si       0.60825231      -2.74126884       2.44956598       0.00000000
Si      -1.53600039      -1.85771553       2.90624779       0.00000000
