10
Lattice="16.28999089631971 0.0 0.0 0.0 16.28999089631971 0.0 0.0 0.0 34.450931932916035" Properties=species:S:1:pos:R:3:initial_magmoms:R:1 pbc="T T T"
Si       2.19525669      -0.66860676       0.49061600       0.00000000
Si      -0.68132925      -0.92812275      -2.04535297       0.00000000
Si      -0.21418092       2.34678627      -0.31443383       0.00000000
Si      -1.76518440      -0.96029550       1.30651787       0.00000000
Si      -0.75171834      -3.23865074      -1.62735958       0.00000000
Si      -2.55964770       0.85245570       2.53927626       0.00000000
Si       2.04040395      -2.77379604       1.47301932       0.00000000
Si      -2.52582966       2.90677131      -0.30495982       0.00000000
Si      -3.01153230      -0.44662293      -2.41322023       0.00000000
Si      -3.54840509      -1.62711036      -0.17938610       0.00000000
