10
Lattice="16.28999089631971 0.0 0.0 0.0 16.28999089631971 0.0 0.0 0.0 34.450931932916035" Properties=species:S:1:pos:R:3:initial_magmoms:R:1 pbc="T T T"
Si       0.71383106      -2.21506859      -0.51076980       0.00000000
Si      -2.07776085       0.32200443       1.13123143       0.00000000
Si       1.78322069       0.66681486       1.48590398       0.00000000
Si       0.53687279       1.18048743      -2.23383413       0.00000000
Si       2.86707584       0.69898761      -1.86596687       0.00000000
Si       2.79668675      -1.61154038      -1.44797348       0.00000000
Si       0.98875739       2.47956606       2.71866236       0.00000000
Si      -1.75639173      -0.11528433       3.44003083       0.00000000
Si      -2.57067996       2.64332943       1.25339451       0.00000000
Si       3.54840509       1.62711036       0.17938610       0.00000000
