10
Lattice="16.28999089631971 0.0 0.0 0.0 16.28999089631971 0.0 0.0 0.0 34.450931932916035" Properties=species:S:1:pos:R:3:initial_magmoms:R:1 pbc="T T T"
Si       1.40405139      -1.26485334      -1.33301410       0.00000000
Si      -1.38191328       1.26162792      -1.37467219       0.00000000
Si       1.36029645       1.33765335       1.33647642       0.00000000
Si      -1.35270531      -1.37955123       1.32934507       0.00000000
Si      -0.43297191      -2.13811137      -2.55550369       0.00000000
Si      -2.39220279      -0.65288691      -2.50337389       0.00000000
Si       0.08957871       2.54575233      -2.65397278       0.00000000
Si       0.00635310       2.69558775       2.69115672       0.00000000
Si      -2.70964602      -0.01918962       2.69029545       0.00000000
Si       2.71878471      -0.01907559       2.69053661       0.00000000
