10
Lattice="16.28999089631971 0.0 0.0 0.0 16.28999089631971 0.0 0.0 0.0 34.450931932916035" Properties=species:S:1:pos:R:3:initial_magmoms:R:1 pbc="T T T"
Si       2.31199083      -0.10246410       0.35198537       0.00000000
Si      -0.61709778       1.14890112       1.96856180       0.00000000
Si      -0.52062840       1.29946959      -1.93721144       0.00000000
Si      -1.29857364      -2.00874531       0.22145071       0.00000000
Si       0.30675699      -0.62694508       3.23952629       0.00000000
Si      -2.54383663       2.05657992       0.99163618       0.00000000
Si      -1.31509170       3.11222079      -0.70445305       0.00000000
Si       2.18588994      -1.67608136       2.12786300       0.00000000
Si      -1.04316273      -2.83660118      -1.96484110       0.00000000
Si       3.28495995      -0.51403095      -1.77070999       0.00000000
