10
Lattice="16.28999089631971 0.0 0.0 0.0 16.28999089631971 0.0 0.0 0.0 34.450931932916035" Properties=species:S:1:pos:R:3:initial_magmoms:R:1 pbc="T T T"
Si       1.34830701       1.33521427      -1.35917615       0.00000000
Si      -1.35668007       1.35599491       1.35481811       0.00000000
Si       1.35645201      -1.35777150       1.35474920       0.00000000
Si      -1.37691225      -1.32851466      -1.37448960       0.00000000
Si      -0.04408074       2.64244230      -2.70473729       0.00000000
Si      -0.04215852      -2.66149278      -2.74922725       0.00000000
Si      -0.00029322       2.71419160       2.71259899       0.00000000
Si       2.71459818      -0.00063531       2.71263345       0.00000000
Si      -2.71533123      -0.00055386       2.71273680       0.00000000
Si       0.00011403      -2.71599912       2.71325356       0.00000000
