10
Lattice="16.28999089631971 0.0 0.0 0.0 16.28999089631971 0.0 0.0 0.0 34.450931932916035" Properties=species:S:1:pos:R:3:initial_magmoms:R:1 pbc="T T T"
Si       0.26717229       1.43161407       1.81745993       0.00000000
Si      -1.78070877      -1.51858638       0.28322127       0.00000000
Si      -0.90896571       1.13366997      -1.87103116       0.00000000
Si       1.74265533      -2.39560740      -1.39371323       0.00000000
Si      -2.42481537       2.65106133      -0.59534689       0.00000000
Si       1.10845305       3.44114751       0.55772645       0.00000000
Si       2.07762660      -2.21117202       2.05331114       0.00000000
Si       1.54839708       0.29159100       3.42538917       0.00000000
Si      -1.95362712      -0.54555210      -3.25244540       0.00000000
Si      -3.03155271      -1.03187376       2.20896054       0.00000000
