10
Lattice="16.28999089631971 0.0 0.0 0.0 16.28999089631971 0.0 0.0 0.0 34.450931932916035" Properties=species:S:1:pos:R:3:initial_magmoms:R:1 pbc="T T T"
Si       0.90896571      -1.13366997       1.87103116       0.00000000
Si       1.73345148       1.02815754      -1.28098972       0.00000000
Si      -1.04466141      -1.67922207      -1.38141424       0.00000000
Si      -1.51584966       1.51739136       1.27568427       0.00000000
Si      -0.87174306      -2.65225635       2.15425243       0.00000000
Si       0.23869737       2.26484987      -2.76878850       0.00000000
Si      -2.50220916      -0.46066491      -2.78501489       0.00000000
Si       1.17613800       0.29794410       3.68849109       0.00000000
Si       3.43572390       1.81415444       0.28525388       0.00000000
Si       2.01741876       2.30747754       2.42875761       0.00000000
