10
Lattice="16.28999089631971 0.0 0.0 0.0 16.28999089631971 0.0 0.0 0.0 34.450931932916035" Properties=species:S:1:pos:R:3:initial_magmoms:R:1 pbc="T T T"
Si       1.04917374       1.86723866      -0.99325537       0.00000000
Si      -2.14425270       0.88355331       0.45668181       0.00000000
Si      -0.46626867      -1.40827050      -1.88612068       0.00000000
Si       1.19529504      -0.90028314       1.92091614       0.00000000
Si      -3.40216976      -1.02165993       0.22510252       0.00000000
Si      -0.60825231       2.74126884      -2.44956598       0.00000000
Si      -2.69110800       2.13774063      -1.51236231       0.00000000
Si       2.83245633       1.05521733      -2.27762128       0.00000000
Si      -2.83916781      -1.55781270      -2.02447570       0.00000000
Si       3.46366125       0.04163724       1.66680592       0.00000000
