10
Lattice="16.28999089631971 0.0 0.0 0.0 16.28999089631971 0.0 0.0 0.0 34.450931932916035" Properties=species:S:1:pos:R:3:initial_magmoms:R:1 pbc="T T T"
Si      -1.73418453      -0.95866487       1.31774819       0.00000000
Si       0.99882135       1.83782151       1.13522705       0.00000000
Si       1.88902098      -1.62967603       0.18539538       0.00000000
Si      -1.74609252      -0.28536822      -1.84090935       0.00000000
Si      -0.34179678      -2.26589290       2.66330933       0.00000000
Si       2.38495374       0.49331007       2.64766860       0.00000000
Si       2.56267764      -1.89181309      -1.97581928       0.00000000
Si      -3.43505601      -1.48643644      -0.26984263       0.00000000
Si       0.96897807      -3.59356490       1.20556901       0.00000000
Si       0.77320485       2.99786499      -2.41531006       0.00000000
