10
Lattice="16.28999089631971 0.0 0.0 0.0 16.28999089631971 0.0 0.0 0.0 34.450931932916035" Properties=species:S:1:pos:R:3:initial_magmoms:R:1 pbc="T T T"
Si       0.16206921       1.96743289       1.36732380       0.00000000
Si      -0.84128076      -2.00953344       1.25973348       0.00000000
Si      -2.14115760       1.22607500      -0.72984340       0.00000000
Si       1.41830514      -0.49332310      -2.14350373       0.00000000
Si      -0.28632933       3.49927933      -0.44135114       0.00000000
Si      -1.10845305      -3.44114751      -0.55772645       0.00000000
Si       3.67839603       0.37319575      -0.55686517       0.00000000
Si       2.00309985      -1.21073307       2.92061384       0.00000000
Si      -3.53326842      -0.79008618      -1.15307334       0.00000000
Si      -2.62456335      -1.19751211       2.54409939       0.00000000
