10
Lattice="16.28999089631971 0.0 0.0 0.0 16.28999089631971 0.0 0.0 0.0 34.450931932916035" Properties=species:S:1:pos:R:3:initial_magmoms:R:1 pbc="T T T"
Si       1.06805385      -2.05438077      -0.42274762       0.00000000
Si      -0.34396335       0.22116933       2.33422420       0.00000000
Si      -2.13830685      -0.64511658      -0.90330394       0.00000000
Si       1.02773610       1.89796419      -1.09361099       0.00000000
Si      -0.01475874       1.11412197      -3.19546353       0.00000000
Si      -2.40034779       1.24538679       2.13096359       0.00000000
Si      -3.63539043      -0.36598743       0.93513662       0.00000000
Si      -2.58670539       0.88672986      -2.71197888       0.00000000
Si       1.37801997      -2.23935372      -2.82749292       0.00000000
Si       2.87922492      -2.35950876       1.09767621       0.00000000
