10
Lattice="16.28999089631971 0.0 0.0 0.0 16.28999089631971 0.0 0.0 0.0 34.450931932916035" Properties=species:S:1:pos:R:3:initial_magmoms:R:1 pbc="T T T"
Si      -2.17481274       0.41989104       0.92159740       0.00000000
Si       1.35039213       1.71150885       1.00486534       0.00000000
Si       0.21199806      -0.27575712      -2.38865670       0.00000000
Si       0.77370984      -2.19985699       0.65064066       0.00000000
Si       3.39547131       0.60561333       0.62197747       0.00000000
Si       2.75607252      -1.39333909       1.74621536       0.00000000
Si      -2.69164557      -1.83870443       1.48755762       0.00000000
Si       0.90606609       3.67038135      -0.27633108       0.00000000
Si       2.36985291      -1.19123394      -2.84547631       0.00000000
Si      -3.62571417       1.43931924      -0.72743183       0.00000000
