10
Lattice="16.28999089631971 0.0 0.0 0.0 16.28999089631971 0.0 0.0 0.0 34.450931932916035" Properties=species:S:1:pos:R:3:initial_magmoms:R:1 pbc="T T T"
Si       0.80154945      -2.16471361       0.36387095       0.00000000
Si       0.90860733       2.09825626       0.51517952       0.00000000
Si       0.86152923      -0.10282248      -2.20696238       0.00000000
Si      -2.19168918       0.15649966       1.00479644       0.00000000
Si      -1.14316704      -0.88492167       2.80361841       0.00000000
Si      -1.10483667      -3.17866837      -0.65832323       0.00000000
Si      -0.79796565       3.34950745      -0.57543424       0.00000000
Si       3.08203542      -0.78337470      -1.52693506       0.00000000
Si      -1.12083345      -0.90934038      -3.30253708       0.00000000
Si      -2.67643071       2.44787224       0.55510818       0.00000000
