10
Lattice="16.28999089631971 0.0 0.0 0.0 16.28999089631971 0.0 0.0 0.0 34.450931932916035" Properties=species:S:1:pos:R:3:initial_magmoms:R:1 pbc="T T T"
Si       0.47179098      -1.97003182      -1.18094416       0.00000000
Si      -1.64048445      -1.25051881       1.18304566       0.00000000
Si       1.98236268       0.80651790       1.09557470       0.00000000
Si      -0.77370984       2.19985699      -0.65064066       0.00000000
Si       0.01599678      -2.26932799       2.64421386       0.00000000
Si       1.25843508      -3.21336607       0.76849737       0.00000000
Si      -3.46535541       0.36115256       0.83691696       0.00000000
Si       1.12083345       0.90934038       3.30253708       0.00000000
Si      -0.56171178       1.92409987      -3.03929736       0.00000000
Si       1.90469196      -1.36881679      -2.90838375       0.00000000
