10
Lattice="16.28999089631971 0.0 0.0 0.0 16.28999089631971 0.0 0.0 0.0 34.450931932916035" Properties=species:S:1:pos:R:3:initial_magmoms:R:1 pbc="T T T"
Si      -1.35596331      -1.35685926       1.35760863       0.00000000
Si       1.35658233       1.35702216       1.35685071       0.00000000
Si      -1.35738054       1.35741312      -1.35709187       0.00000000
Si       1.35795069      -1.35754344      -1.35685071       0.00000000
Si      -0.00161271       2.71272483       2.71456270       0.00000000
Si      -0.00079821      -2.71427238      -2.71394258       0.00000000
Si      -2.71492398      -0.00190593      -2.71349472       0.00000000
Si      -2.71480995       2.71477737       0.00048231       0.00000000
Si       2.71533123       2.71425609       0.00020671       0.00000000
Si      -2.71528236      -2.71479366       0.00055122       0.00000000
