10
Lattice="16.28999089631971 0.0 0.0 0.0 16.28999089631971 0.0 0.0 0.0 34.450931932916035" Properties=species:S:1:pos:R:3:initial_magmoms:R:1 pbc="T T T"
Si      -1.35439947       1.36420605      -1.31249167       0.00000000
Si       1.34241003       1.35327546       1.36603878       0.00000000
Si      -1.36883241      -1.36270737       1.36138790       0.00000000
Si       1.37652129      -1.31403285      -1.48796414       0.00000000
Si      -0.53313912      -2.17715850      -2.83888726       0.00000000
Si      -2.38498632      -0.29422998      -2.72981555       0.00000000
Si       0.09703953       2.54285271      -2.69029073       0.00000000
Si       2.70252729       2.68951158      -0.00620462       0.00000000
Si       2.69760771      -0.00185706       2.72030567       0.00000000
Si       2.69584839      -2.72562651      -0.01660191       0.00000000
