10
Lattice="16.28999089631971 0.0 0.0 0.0 16.28999089631971 0.0 0.0 0.0 34.450931932916035" Properties=species:S:1:pos:R:3:initial_magmoms:R:1 pbc="T T T"
Si       1.38965103      -1.36109466      -1.31102061       0.00000000
Si       1.37160171       1.34267067       1.36261780       0.00000000
Si      -1.34442999      -1.37051028       1.36775099       0.00000000
Si      -1.38533418       1.39839876      -1.38247533       0.00000000
Si      -2.61514773      -0.16241130      -2.62269820       0.00000000
Si      -2.70472644      -2.70816363       0.03127457       0.00000000
Si      -2.69837334      -0.01257588       2.72243130       0.00000000
Si       0.01327635       2.70212004       2.72150112       0.00000000
Si       2.72743470       2.71251306      -0.01150317       0.00000000
Si       0.01405827      -2.72723922       2.72181118       0.00000000
