10
Lattice="16.28999089631971 0.0 0.0 0.0 16.28999089631971 0.0 0.0 0.0 34.450931932916035" Properties=species:S:1:pos:R:3:initial_magmoms:R:1 pbc="T T T"
Si      -1.35848826       1.35672894      -1.35406019       0.00000000
Si       1.35770634       1.35645201       1.35774644       0.00000000
Si      -1.35739683      -1.35839052       1.35753973       0.00000000
Si       1.36115982      -1.36076886      -1.35895222       0.00000000
Si      -2.71878471       0.01907559      -2.69053661       0.00000000
Si      -2.71243161       2.71466334       0.00062012       0.00000000
Si      -0.00013032       2.71438641       2.71483831       0.00000000
Si       2.71682991       2.71282257       0.00113688       0.00000000
Si      -2.71482624      -0.00102627       2.71511391       0.00000000
Si       2.71531494      -0.00154755       2.71483831       0.00000000
