10
Lattice="16.28999089631971 0.0 0.0 0.0 16.28999089631971 0.0 0.0 0.0 34.450931932916035" Properties=species:S:1:pos:R:3:initial_magmoms:R:1 pbc="T T T"
Si      -1.51189382       0.68264874      -1.60268054       0.00000000
Si      -1.50814712      -1.15404876       1.31270850       0.00000000
Si       1.11632242       1.53282384       1.36280019       0.00000000
Si       1.14412945      -1.71118305      -1.24098001       0.00000000
Si      -2.62049348      -2.42426151      -0.30611900       0.00000000
Si      -0.10539893      -2.38267314       2.68989217       0.00000000
Si      -2.43465716       2.75486706      -0.36272191       0.00000000
Si       2.59995372       0.32850414       2.69163538       0.00000000
Si       2.92502067       2.42437554       0.20599340       0.00000000
Si      -0.60012623      -3.26080188      -1.90405747       0.00000000
