10
Lattice="16.28999089631971 0.0 0.0 0.0 16.28999089631971 0.0 0.0 0.0 34.450931932916035" Properties=species:S:1:pos:R:3:initial_magmoms:R:1 pbc="T T T"
Si       1.16815590      -1.45562553      -1.44700885       0.00000000
Si      -1.23981561      -1.47444048       1.40566771       0.00000000
Si      -1.54582326       1.27286802      -1.44139335       0.00000000
Si       1.81861560       0.76784544       1.48204547       0.00000000
Si       2.56901445       2.58817149       0.06011691       0.00000000
Si       2.52079605      -0.08337222      -2.82618378       0.00000000
Si       2.48287293      -2.91056688       0.11692653       0.00000000
Si      -2.77889481      -2.64241719      -0.07052110       0.00000000
Si      -0.19749996       2.63272464      -2.82449568       0.00000000
Si       3.46514364      -1.07527032       1.47326048       0.00000000
