10
Lattice="16.28999089631971 0.0 0.0 0.0 16.28999089631971 0.0 0.0 0.0 34.450931932916035" Properties=species:S:1:pos:R:3:initial_magmoms:R:1 pbc="T T T"
Si      -2.17168506      -0.94719834       0.01929253       0.00000000
Si       0.47025972       1.75117500       1.56903412       0.00000000
Si       0.13528845       1.56673962      -1.87799025       0.00000000
Si       2.11352976      -2.06744535       0.99866417       0.00000000
Si      -1.27418751      -3.26019915       0.57681228       0.00000000
Si       1.09871163      -1.58500071       3.07457514       0.00000000
Si       0.24909039       0.59611626       3.59171837       0.00000000
Si      -3.10091553       1.03088007       1.69033592       0.00000000
Si      -2.77293267      -0.40283541      -2.40081789       0.00000000
Si      -1.00330110       0.54802818      -3.73672242       0.00000000
