10
Lattice="16.28999089631971 0.0 0.0 0.0 16.28999089631971 0.0 0.0 0.0 34.450931932916035" Properties=species:S:1:pos:R:3:initial_magmoms:R:1 pbc="T T T"
Si       2.32663554       0.13437621       0.07083116       0.00000000
Si      -0.46872846      -0.73695960       2.20062341       0.00000000
Si      -0.77535513       2.24283978      -0.53061355       0.00000000
Si      -0.42332823      -1.61811828      -1.79665156       0.00000000
Si       0.24987231       2.49023601      -2.71738768       0.00000000
Si       1.52902827      -1.25053443      -3.17017653       0.00000000
Si      -2.64862368       0.05481585       2.70605331       0.00000000
Si       2.96909685       2.36178936       0.14469399       0.00000000
Si       3.26459745      -1.14829839      -1.60954844       0.00000000
Si      -3.16654794       2.26300680      -0.17576875       0.00000000
