10
Lattice="16.28999089631971 0.0 0.0 0.0 16.28999089631971 0.0 0.0 0.0 34.450931932916035" Properties=species:S:1:pos:R:3:initial_magmoms:R:1 pbc="T T T"
Si      -1.35705474       1.35758407       1.35740193       0.00000000
Si       1.35747828      -1.35726651       1.35729857       0.00000000
Si       1.35791811       1.35678843      -1.35740193       0.00000000
Si      -1.35814617      -1.35713619      -1.35788424       0.00000000
Si      -2.71459818       0.00063531      -2.71263345       0.00000000
Si      -2.71342530      -0.00167787       2.71476940       0.00000000
Si       0.00055386      -2.71277370       2.71556178       0.00000000
Si      -2.71489140       2.71482691      -0.00003445       0.00000000
Si      -2.71448415      -2.71536381       0.00062012       0.00000000
Si       2.71510317       2.71524882       0.00024116       0.00000000
