10
Lattice="16.28999089631971 0.0 0.0 0.0 16.28999089631971 0.0 0.0 0.0 34.450931932916035" Properties=species:S:1:pos:R:3:initial_magmoms:R:1 pbc="T T T"
Si      -1.27291715       1.27930257      -1.45045739       0.00000000
Si      -1.37240018      -1.34236116       1.34624326       0.00000000
Si       1.34382441       1.37182977       1.34693228       0.00000000
Si       1.21175161      -1.50995268      -1.33077134       0.00000000
Si      -0.01265375      -2.70125667       2.70657352       0.00000000
Si       2.70300662       0.01529631       2.70609121       0.00000000
Si       2.69538290      -2.71427238      -0.00193614       0.00000000
Si      -2.72603402       2.70686043      -0.02021237       0.00000000
Si      -0.01417674       2.72927547       2.70612566       0.00000000
Si       2.69868977       2.73764853      -0.02623095       0.00000000
