10
Lattice="16.28999089631971 0.0 0.0 0.0 16.28999089631971 0.0 0.0 0.0 34.450931932916035" Properties=species:S:1:pos:R:3:initial_magmoms:R:1 pbc="T T T"
Si       0.24355179      -2.28483540       0.25156085       0.00000000
Si       1.24908462       0.83215836      -1.79351652       0.00000000
Si      -2.00598318       0.92372445       1.00004221       0.00000000
Si       1.95372486       0.93543696       1.12347997       0.00000000
Si      -0.62529165      -1.99172943       2.41153213       0.00000000
Si      -1.67164722      -0.01847286       3.24524515       0.00000000
Si      -3.65091480      -0.25990695      -0.28039629       0.00000000
Si      -0.94630239      -3.21062868      -1.61330359       0.00000000
Si       3.15547074       1.84611312      -0.77132235       0.00000000
Si       1.21075425       3.12590506       1.66842511       0.00000000
