10
Lattice="16.28999089631971 0.0 0.0 0.0 16.28999089631971 0.0 0.0 0.0 34.450931932916035" Properties=species:S:1:pos:R:3:initial_magmoms:R:1 pbc="T T T"
Si       1.03095046      -2.01383496       0.58559727       0.00000000
Si       0.63022752      -0.17676279      -2.26318634       0.00000000
Si       0.38188647       1.99713771       1.19141724       0.00000000
Si      -2.19804228      -0.36079092       0.80622116       0.00000000
Si      -0.02461419      -3.24242187      -1.23589342       0.00000000
Si      -1.60572159      -0.56291724      -3.04015864       0.00000000
Si       0.50849235      -1.86939153       3.14406271       0.00000000
Si       2.68593497       2.21649885       1.28340128       0.00000000
Si      -2.22195600       0.55441386       3.00525982       0.00000000
Si      -2.24512038      -2.56186966      -1.91592075       0.00000000
