10
Lattice="16.28999089631971 0.0 0.0 0.0 16.28999089631971 0.0 0.0 0.0 34.450931932916035" Properties=species:S:1:pos:R:3:initial_magmoms:R:1 pbc="T T T"
Si      -1.35780408      -1.35690813       1.35698852       0.00000000
Si       1.35702216      -1.35757602      -1.35757418       0.00000000
Si       1.35672894       1.35915615       1.35643730       0.00000000
Si      -1.35777150       1.35762489      -1.35743638       0.00000000
Si      -2.71391400      -0.00029322      -2.71480386       0.00000000
Si       2.71453714       2.71500543      -0.00010335       0.00000000
Si       0.00027693      -2.71394658      -2.71563068       0.00000000
Si      -2.71515204       2.71453302      -0.00034451       0.00000000
Si      -2.71376739       0.00071676       2.71604409       0.00000000
Si       2.71454629      -2.71531494       0.00031006       0.00000000
