10
Lattice="16.28999089631971 0.0 0.0 0.0 16.28999089631971 0.0 0.0 0.0 34.450931932916035" Properties=species:S:1:pos:R:3:initial_magmoms:R:1 pbc="T T T"
Si      -1.35374787       1.35482301       1.36012355       0.00000000
Si       1.35780820       1.35584928      -1.35654065       0.00000000
Si      -1.35672894      -1.35915615      -1.35643730       0.00000000
Si       1.35983831      -1.35923760       1.36573906       0.00000000
Si      -0.00013032       2.71305063      -2.71401148       0.00000000
Si      -2.71482624       2.71223613       0.00144694       0.00000000
Si      -2.71450044      -0.00153126      -2.71387368       0.00000000
Si       2.71560394       2.71334385       0.00027561       0.00000000
Si       2.71537588      -0.00187335      -2.71404593       0.00000000
Si      -2.71453302      -2.71606428       0.00055122       0.00000000
