10
Lattice="16.28999089631971 0.0 0.0 0.0 16.28999089631971 0.0 0.0 0.0 34.450931932916035" Properties=species:S:1:pos:R:3:initial_magmoms:R:1 pbc="T T T"
Si       1.35374787      -1.35482301      -1.36012355       0.00000000
Si      -1.36107837       1.35741312      -1.35867661       0.00000000
Si       1.35464382       1.35744570       1.37101005       0.00000000
Si      -1.35264015      -1.37225331       1.37917493       0.00000000
Si      -2.52079605       0.08337222       2.82618378       0.00000000
Si       2.70990215       2.71306692       0.00330729       0.00000000
Si       2.71358618      -2.71406061       0.00561551       0.00000000
Si       2.71155607       0.00102627      -2.71666421       0.00000000
Si      -2.71674846      -2.71326240      -0.00051676       0.00000000
Si      -0.00298107      -2.71397916      -2.71656085       0.00000000
