10
Lattice="16.28999089631971 0.0 0.0 0.0 16.28999089631971 0.0 0.0 0.0 34.450931932916035" Properties=species:S:1:pos:R:3:initial_magmoms:R:1 pbc="T T T"
Si       1.35780408       1.35690813      -1.35698852       0.00000000
Si      -1.35596331       1.35762489       1.35905557       0.00000000
Si      -1.35733167      -1.35839052      -1.35712632       0.00000000
Si       1.35845568      -1.35943308       1.35991685       0.00000000
Si      -0.01326006      -2.69155272       2.71356362       0.00000000
Si       0.00003258       2.71453302      -2.71442489       0.00000000
Si      -2.71472850      -0.00035838      -2.71439044       0.00000000
Si       2.71482624      -0.00066789      -2.71456270       0.00000000
Si      -2.71477737      -2.71479529       0.00179145       0.00000000
Si      -0.00019548      -2.71525792      -2.71435599       0.00000000
