10
Lattice="16.28999089631971 0.0 0.0 0.0 16.28999089631971 0.0 0.0 0.0 34.450931932916035" Properties=species:S:1:pos:R:3:initial_magmoms:R:1 pbc="T T T"
Si       0.49291911      -2.32132500      -0.12216307       0.00000000
Si      -1.00540251       1.00931211      -1.92460239       0.00000000
Si       2.06193837       1.21358871       0.33372636       0.00000000
Si      -1.30161987       0.02290374       2.03632682       0.00000000
Si      -1.29670029       3.15778392       0.99949100       0.00000000
Si      -0.62385813       3.27300309      -1.26310967       0.00000000
Si       0.81428823      -2.75861376       2.18663632       0.00000000
Si       3.55943735      -0.16376337       1.46526786       0.00000000
Si      -1.36205577      -2.27838456       2.83062795       0.00000000
Si       2.57067996      -2.64332943      -1.25339451       0.00000000
