10
Lattice="16.28999089631971 0.0 0.0 0.0 16.28999089631971 0.0 0.0 0.0 34.450931932916035" Properties=species:S:1:pos:R:3:initial_magmoms:R:1 pbc="T T T"
Si       0.38154438       2.26369098       0.66149271       0.00000000
Si       1.00540251      -1.00931211       1.92460239       0.00000000
Si      -2.30712012      -0.43018632      -0.68753763       0.00000000
Si       1.47305583       0.71363232      -1.94434278       0.00000000
Si      -0.29129778       2.14847181       2.92409338       0.00000000
Si      -3.02278869       1.87835103      -0.93933964       0.00000000
Si       3.06734088       0.20427660       2.25832875       0.00000000
Si      -1.18084581       3.26028060      -1.76075366       0.00000000
Si       3.63452936      -0.18295299      -1.53802826       0.00000000
Si       1.49832162      -3.33063711       1.80243932       0.00000000
