10
Lattice="16.28999089631971 0.0 0.0 0.0 16.28999089631971 0.0 0.0 0.0 34.450931932916035" Properties=species:S:1:pos:R:3:initial_magmoms:R:1 pbc="T T T"
Si      -2.25324909       0.61305786      -0.10586777       0.00000000
Si       0.82689669       1.24434423       1.84898255       0.00000000
Si       1.30161987      -0.02290374      -2.03632682       0.00000000
Si      -0.06043590      -2.30128830       0.79430113       0.00000000
Si       0.00491958       3.13488018      -1.03683583       0.00000000
Si       2.11590810      -2.78151750       0.15030950       0.00000000
Si      -2.72710890       0.83575845       2.22525584       0.00000000
Si       1.79453898      -2.34422874      -2.15848990       0.00000000
Si      -3.38260221      -1.12057281      -1.22063165       0.00000000
Si      -2.34626499       2.81764872      -0.99139502       0.00000000
