10
Lattice="16.28999089631971 0.0 0.0 0.0 16.28999089631971 0.0 0.0 0.0 34.450931932916035" Properties=species:S:1:pos:R:3:initial_magmoms:R:1 pbc="T T T"
Si       0.11780928       0.34345836       2.31916913       0.00000000
Si      -1.72486665      -1.43946585      -0.70056009       0.00000000
Si       1.82913894      -1.03088007      -1.07683338       0.00000000
Si      -0.30328722       2.25683289      -0.75933342       0.00000000
Si       2.63362059       1.10495070      -1.59318424       0.00000000
Si      -1.25100684      -1.66216644      -3.03168370       0.00000000
Si      -1.28054061      -3.39833835       0.58063633       0.00000000
Si      -2.03885640       2.15459685      -2.31996150       0.00000000
Si      -0.10215459       2.65455324       2.75676511       0.00000000
Si       1.00224225      -2.27522430      -2.92581593       0.00000000
