10
Lattice="16.28999089631971 0.0 0.0 0.0 16.28999089631971 0.0 0.0 0.0 34.450931932916035" Properties=species:S:1:pos:R:3:initial_magmoms:R:1 pbc="T T T"
Si       1.80170658      -0.20326662       1.42351330       0.00000000
Si      -1.65599253      -1.08732492       1.18842001       0.00000000
Si      -0.11780928      -0.34345836      -2.31916913       0.00000000
Si      -0.21996387       2.31109488       0.43759598       0.00000000
Si       3.29956509       1.33970589       0.46484668       0.00000000
Si      -0.42109650       1.91337453      -3.07850255       0.00000000
Si      -1.35905841       3.19604913      -1.39812295       0.00000000
Si       0.96847308       1.03140135       3.48178538       0.00000000
Si       1.93357413       3.23327178       0.59703498       0.00000000
Si      -1.65216438      -3.39431472       0.63434536       0.00000000
