10
Lattice="16.28999089631971 0.0 0.0 0.0 16.28999089631971 0.0 0.0 0.0 34.450931932916035" Properties=species:S:1:pos:R:3:initial_magmoms:R:1 pbc="T T T"
Si       1.33797915      -1.36923966       1.38599277       0.00000000
Si      -1.26750861      -1.51589853      -1.29809334       0.00000000
Si       1.87172100       0.73269162      -1.26676561       0.00000000
Si      -1.38116394       1.37906253       1.37922316       0.00000000
Si       1.11879720       0.48203739      -3.45790195       0.00000000
Si      -2.71894761      -2.69454519       0.07970572       0.00000000
Si       2.69304651       0.00640197       2.74989904       0.00000000
Si      -0.02213811      -2.70547578       2.75823617       0.00000000
Si      -0.02210553       2.72559393       2.75310298       0.00000000
Si      -2.73699693       0.00922014       2.75334413       0.00000000
