10
Lattice="16.28999089631971 0.0 0.0 0.0 16.28999089631971 0.0 0.0 0.0 34.450931932916035" Properties=species:S:1:pos:R:3:initial_magmoms:R:1 pbc="T T T"
Si       1.34842267       1.36251189      -1.39826076       0.00000000
Si      -1.36475119      -1.35324288      -1.39491901       0.00000000
Si      -1.39679161       1.37847609       1.44904146       0.00000000
Si       1.46372329      -1.37059173       1.61189110       0.00000000
Si       2.70269182      -2.69402391      -0.03138482       0.00000000
Si       2.69153317       2.71285515      -0.01378038       0.00000000
Si      -2.72006089      -2.71150308      -0.00523654       0.00000000
Si      -2.72369356       2.71826343      -0.02952447       0.00000000
Si       2.70725302       0.00544086      -2.75914223       0.00000000
Si      -0.00805703      -2.71174743      -2.76038246       0.00000000
