10
Lattice="16.28999089631971 0.0 0.0 0.0 16.28999089631971 0.0 0.0 0.0 34.450931932916035" Properties=species:S:1:pos:R:3:initial_magmoms:R:1 pbc="T T T"
Si       1.35615879      -1.35702216      -1.35750528       0.00000000
Si       1.35565380       1.35866745       1.35733303       0.00000000
Si      -1.35821133       1.35782037      -1.35743638       0.00000000
Si      -1.35853713      -1.35783666       1.35795314       0.00000000
Si      -2.71407690      -0.00032580      -2.71397703       0.00000000
Si      -0.00330687      -2.71306692      -2.71514836       0.00000000
Si       2.71409731      -2.71422351      -0.00003445       0.00000000
Si       2.71346999       0.00071676      -2.71532062       0.00000000
Si       2.71433229       2.71541268      -0.00003445       0.00000000
Si      -2.71559187      -2.71469592      -0.00027561       0.00000000
