10
Lattice="16.28999089631971 0.0 0.0 0.0 16.28999089631971 0.0 0.0 0.0 34.450931932916035" Properties=species:S:1:pos:R:3:initial_magmoms:R:1 pbc="T T T"
Si      -2.32251417       0.43131033      -0.14565862       0.00000000
Si       0.96247836       1.88835309       1.05413020       0.00000000
Si       0.42209019      -0.50810139      -2.30459638       0.00000000
Si       1.61052714      -1.78779492       0.73959302       0.00000000
Si       2.91682224       1.26203517      -0.02849094       0.00000000
Si       2.57562819       0.41407551      -2.14515738       0.00000000
Si      -1.42382745      -0.10958283       3.21393882       0.00000000
Si      -2.56606596       2.71614573      -0.39721947       0.00000000
Si      -0.61234110       3.65158269       0.72626050       0.00000000
Si      -3.19135761       0.72441630       2.01431266       0.00000000
