10
Lattice="16.28999089631971 0.0 0.0 0.0 16.28999089631971 0.0 0.0 0.0 34.450931932916035" Properties=species:S:1:pos:R:3:initial_magmoms:R:1 pbc="T T T"
Si      -0.04206078      -1.16989893       2.12235085       0.00000000
Si      -1.61052714       1.78779492      -0.73959302       0.00000000
Si       2.14759215       1.21334436       0.51848682       0.00000000
Si       0.83323350      -1.23466797      -2.05827208       0.00000000
Si       1.30629510       3.04983009      -0.76808396       0.00000000
Si       0.88070256      -3.24211725       0.88239221       0.00000000
Si      -1.18843695       1.27969353      -3.04418940       0.00000000
Si      -0.64804878       3.67614801       0.31453718       0.00000000
Si       0.96510105       2.20187043      -2.88475040       0.00000000
Si      -0.96847308      -1.03140135      -3.48178538       0.00000000
