10
Lattice="16.28999089631971 0.0 0.0 0.0 16.28999089631971 0.0 0.0 0.0 34.450931932916035" Properties=species:S:1:pos:R:3:initial_magmoms:R:1 pbc="T T T"
Si       1.35765747       1.35702216       1.35798759       0.00000000
Si      -1.35791811      -1.35861858       1.35753973       0.00000000
Si      -1.35817875       1.35669636      -1.35957234       0.00000000
Si       1.35697329      -1.36249560      -1.36277628       0.00000000
Si      -2.71533123       2.71369656       0.00003445       0.00000000
Si      -0.00053757       2.71438883       2.71487276       0.00000000
Si       2.71376321      -2.71572219      -0.00034451       0.00000000
Si       2.71462551      -0.00102627       2.71494166       0.00000000
Si      -2.71577106      -0.00035838       2.71473495       0.00000000
Si       2.71628309       2.71425566       0.00144694       0.00000000
