10
Lattice="16.28999089631971 0.0 0.0 0.0 16.28999089631971 0.0 0.0 0.0 34.450931932916035" Properties=species:S:1:pos:R:3:initial_magmoms:R:1 pbc="T T T"
Si      -1.35358497       1.35588186       1.35905557       0.00000000
Si      -1.35565380      -1.35866745      -1.35733303       0.00000000
Si       1.35867849       1.35674523      -1.35736748       0.00000000
Si       1.35678959      -1.36085031       1.36260402       0.00000000
Si      -2.71379997       2.71451673       0.00041341       0.00000000
Si      -2.71386513      -0.00084708      -2.71476940       0.00000000
Si       0.00171045       2.71479366      -2.71432154       0.00000000
Si       0.00050499      -2.71568961      -2.71483831       0.00000000
Si      -2.71419093      -2.71650411       0.00062012       0.00000000
Si       2.71631907      -0.00030951      -2.71487276       0.00000000
