10
Lattice="16.28999089631971 0.0 0.0 0.0 16.28999089631971 0.0 0.0 0.0 34.450931932916035" Properties=species:S:1:pos:R:3:initial_magmoms:R:1 pbc="T T T"
Si      -1.34846991      -1.34249148      -1.37759019       0.00000000
Si       1.36276800       1.37766159      -1.37838256       0.00000000
Si      -1.45868805       1.34141634       1.31705986       0.00000000
Si       1.42443297      -1.36902789       1.46326970       0.00000000
Si       0.50391486       2.04949607       2.53417752       0.00000000
Si       2.31493836       0.44103546       2.85656952       0.00000000
Si      -2.70529659      -2.70114264       0.01515842       0.00000000
Si       0.00511506      -2.69837334      -2.73664576       0.00000000
Si       2.74592778      -2.69703756       0.00265272       0.00000000
Si      -2.70868491       0.01614339      -2.73623235       0.00000000
