10
Lattice="16.28999089631971 0.0 0.0 0.0 16.28999089631971 0.0 0.0 0.0 34.450931932916035" Properties=species:S:1:pos:R:3:initial_magmoms:R:1 pbc="T T T"
Si       0.08229708       2.03743495      -1.06973649       0.00000000
Si      -0.48431799      -1.62667053      -1.61023746       0.00000000
Si       1.53121832      -0.83197917       1.68602955       0.00000000
Si      -2.19818889       0.65609604       0.82106952       0.00000000
Si       0.12922857      -2.64412764       1.96112040       0.00000000
Si      -0.21196548      -3.49208730      -0.15554604       0.00000000
Si       1.13786173       3.26602187       0.75175421       0.00000000
Si      -2.86213671      -1.30189680      -2.07684114       0.00000000
Si      -2.13820911       2.71798717      -1.74976381       0.00000000
Si       3.61550753      -1.61834634       0.87450294       0.00000000
