10
Lattice="16.28999089631971 0.0 0.0 0.0 16.28999089631971 0.0 0.0 0.0 34.450931932916035" Properties=species:S:1:pos:R:3:initial_magmoms:R:1 pbc="T T T"
Si      -1.92938760      -0.90779283       1.15000720       0.00000000
Si       1.28239767      -1.40820534      -1.54433279       0.00000000
Si      -1.39354760       1.31501025      -1.55108518       0.00000000
Si       2.01870567       0.91997775       1.23344741       0.00000000
Si      -2.71504241       2.64301992      -0.09046820       0.00000000
Si       3.53338245      -1.01227689       1.17660334       0.00000000
Si       2.68814322      -2.76669360      -0.13897514       0.00000000
Si      -2.80592711      -2.74258440      -0.08151095       0.00000000
Si       2.74532112       2.80735344      -0.15930120       0.00000000
Si       2.65274505      -0.04272867      -2.92888207       0.00000000
