10
Lattice="16.28999089631971 0.0 0.0 0.0 16.28999089631971 0.0 0.0 0.0 34.450931932916035" Properties=species:S:1:pos:R:3:initial_magmoms:R:1 pbc="T T T"
Si      -0.10530508       1.73596014      -1.51167329       0.00000000
Si      -0.13288242       0.64632204       2.22845978       0.00000000
Si       2.41021953      -0.24013089       0.19182290       0.00000000
Si      -2.20762799      -1.19058723       0.21934921       0.00000000
Si       0.11375144      -0.45740691      -2.53331624       0.00000000
Si       2.00948553      -2.57303808       0.10349066       0.00000000
Si       0.38069078      -1.38590433       3.23928514       0.00000000
Si      -2.39478380       0.94780107       2.56153157       0.00000000
Si       1.55268135       3.27244923      -0.79381882       0.00000000
Si      -2.01545486       2.98527282      -1.02071278       0.00000000
