10
Lattice="16.28999089631971 0.0 0.0 0.0 16.28999089631971 0.0 0.0 0.0 34.450931932916035" Properties=species:S:1:pos:R:3:initial_magmoms:R:1 pbc="T T T"
Si      -1.61217732      -1.47750300      -0.77959057       0.00000000
Si      -0.48961550       1.68477696      -1.55229096       0.00000000
Si       1.73850138      -1.52783910      -0.55844992       0.00000000
Si      -0.31703598       0.71079786       2.27365943       0.00000000
Si       1.11228120      -3.28955373       0.93200158       0.00000000
Si      -2.65830713       2.34119880      -0.93069245       0.00000000
Si      -1.09860412      -3.50972937       0.23123478       0.00000000
Si       0.93092463      -2.36395593      -2.81622746       0.00000000
Si       0.92721051       2.76284916       2.55577826       0.00000000
Si       0.76830156       3.58999020      -1.32071166       0.00000000
