10
Lattice="16.28999089631971 0.0 0.0 0.0 16.28999089631971 0.0 0.0 0.0 34.450931932916035" Properties=species:S:1:pos:R:3:initial_magmoms:R:1 pbc="T T T"
Si      -1.35669183       1.35233457      -1.35919338       0.00000000
Si       1.34882045       1.35951520       1.36584241       0.00000000
Si       1.35874432      -1.36099692      -1.35840101       0.00000000
Si      -1.36276800      -1.37766159       1.37838256       0.00000000
Si       2.66450185      -0.00403992       2.75211424       0.00000000
Si      -2.71309497       2.70971837       0.00137804       0.00000000
Si       0.00079971       2.71074464      -2.71521727       0.00000000
Si       2.71666243       2.71097270      -0.00013780       0.00000000
Si      -2.71413753      -0.00387460      -2.71569958       0.00000000
Si      -2.71123791      -2.72015307       0.00079237       0.00000000
