10
Lattice="16.28999089631971 0.0 0.0 0.0 16.28999089631971 0.0 0.0 0.0 34.450931932916035" Properties=species:S:1:pos:R:3:initial_magmoms:R:1 pbc="T T T"
Si       1.35738054       1.35730871      -1.35719522       0.00000000
Si       1.35524655      -1.35969372       1.35788424       0.00000000
Si      -1.35771878      -1.35829278      -1.35722967       0.00000000
Si      -1.35874432       1.36099692       1.35840101       0.00000000
Si      -0.00052128       2.71441314      -2.71421819       0.00000000
Si      -2.71543616       2.71333149      -0.00079237       0.00000000
Si      -2.71468682      -0.00024435      -2.71418374       0.00000000
Si       2.71458189      -2.71432125      -0.00037896       0.00000000
Si       2.71446786      -0.00027693      -2.71463160       0.00000000
Si      -0.00007819      -2.71534752      -2.71473495       0.00000000
