10
Lattice="16.28999089631971 0.0 0.0 0.0 16.28999089631971 0.0 0.0 0.0 34.450931932916035" Properties=species:S:1:pos:R:3:initial_magmoms:R:1 pbc="T T T"
Si      -1.33083110      -1.35400851       1.38155204       0.00000000
Si       1.35933534      -1.35462753      -1.35826320       0.00000000
Si      -1.35524655       1.35969372      -1.35788424       0.00000000
Si       1.35048987       1.35689184       1.36973537       0.00000000
Si       2.71546155      -2.71174743       0.00375515       0.00000000
Si       0.00174303      -2.71311579      -2.71490721       0.00000000
Si      -2.71296533       0.00140094      -2.71511391       0.00000000
Si      -2.71485423      -2.71619460       0.00485758       0.00000000
Si       2.71674846       0.00164529      -2.71511391       0.00000000
Si       2.71554300       2.71637183       0.00320394       0.00000000
