10
Lattice="16.28999089631971 0.0 0.0 0.0 16.28999089631971 0.0 0.0 0.0 34.450931932916035" Properties=species:S:1:pos:R:3:initial_magmoms:R:1 pbc="T T T"
Si       1.33083110       1.35400851      -1.38155204       0.00000000
Si      -1.32149481       1.32800967       1.46061698       0.00000000
Si      -1.38402313      -1.36218609      -1.37669446       0.00000000
Si       1.39354760      -1.31501025       1.55108518       0.00000000
Si      -0.53584000      -2.22280308       2.70109238       0.00000000
Si      -2.38145532      -0.37983393       2.80971623       0.00000000
Si       2.68132097       2.71090035      -0.01181668       0.00000000
Si       2.67594527      -2.72321559       0.00675239       0.00000000
Si       2.69016644      -0.00061902      -2.73981525       0.00000000
Si      -2.74592778       2.69703756      -0.00265272       0.00000000
