10
Lattice="10.86 0.0 0.0 0.0 10.86 0.0 0.0 0.0 10.86" Properties=species:S:1:pos:R:3:initial_magmoms:R:1 pbc="T T T"
Si      -1.53546282      -1.13130792       1.17769098       0.00000000
Si       1.17953718      -1.13130792      -1.53730902       0.00000000
Si       1.17953718       1.58369208       1.17769098       0.00000000
Si      -0.17796282      -2.48880792       2.53519098       0.00000000
Si       2.53703718      -2.48880792      -0.17980902       0.00000000
Si       2.53703718       0.22619208       2.53519098       0.00000000
Si      -0.06732114      -2.40767286      -2.89578642       0.00000000
Si      -0.29040726       2.68800204      -2.68699206       0.00000000
Si      -2.69200938      -2.72435046       0.01410714       0.00000000
Si      -2.89296282       0.22619208       2.53519098       0.00000000
