10
Lattice="16.290000149 0.0 0.0 0.0 16.290000149 0.0 0.0 0.0 29.1751946751" Properties=species:S:1:pos:R:3:initial_magmoms:R:1 pbc="T T T"
Si      -0.68735656       2.05016657       0.76529453       0.00000000
Si       2.05954472      -0.61284772       0.88672169       0.00000000
Si      -1.24354603      -1.78730135       0.83826169       0.00000000
Si      -0.63832366      -0.67323801      -2.14691505       0.00000000
Si      -0.68136184      -2.82031542      -1.17080056       0.00000000
H        0.69304177       2.30976401      -2.14367660       0.00000000
Si      -1.29593467       1.53655915       2.94888280       0.00000000
Si      -3.53791110       0.78860379      -0.77419297       0.00000000
Si       1.53979597      -1.87051067       2.81718597       0.00000000
Si       1.08040168       3.53161176       0.43234721       0.00000000
