10
Lattice="16.290000149 0.0 0.0 0.0 16.290000149 0.0 0.0 0.0 29.1751946751" Properties=species:S:1:pos:R:3:initial_magmoms:R:1 pbc="T T T"
Si       1.34454403       1.35520421      -1.36528241       0.00000000
Si      -1.35689185      -1.36288006      -1.35005296       0.00000000
Si       1.38992797      -1.34810503       1.33327722       0.00000000
Si      -1.38393325       1.35582323       1.33365650       0.00000000
Si       0.02682963      -2.69820395       2.68327183       0.00000000
Si      -0.02868669       2.72248908       2.67282711       0.00000000
Si      -2.70289221      -0.00165181      -2.70509488       0.00000000
Si       2.70402599      -0.00218123      -2.70524075       0.00000000
Si       2.71751411       2.70240351      -0.02153129       0.00000000
Si       2.70772382      -2.71659536      -0.05263205       0.00000000
