10
Lattice="16.290000149 0.0 0.0 0.0 16.290000149 0.0 0.0 0.0 29.1751946751" Properties=species:S:1:pos:R:3:initial_magmoms:R:1 pbc="T T T"
Si      -1.39574350       1.42574968      -1.22559158       0.00000000
Si      -1.32743953      -1.38222280       1.37568628       0.00000000
Si       1.19786887      -1.47308842      -1.42943866       0.00000000
Si       1.30862458       1.44772489       1.36834872       0.00000000
H        3.22014207       1.73081252      -0.51079931       0.00000000
Si      -0.00268785       2.65826738      -2.65666405       0.00000000
Si       2.66960522      -2.68250690       0.02494479       0.00000000
Si       2.52815915      -0.14079447      -2.82809750       0.00000000
Si      -2.90163999       0.13786227      -2.50763716       0.00000000
Si       2.73424394       0.07980471       2.70384909       0.00000000
