10
Lattice="16.290000149 0.0 0.0 0.0 16.290000149 0.0 0.0 0.0 29.1751946751" Properties=species:S:1:pos:R:3:initial_magmoms:R:1 pbc="T T T"
Si      -1.37577848       1.44374525      -1.15746750       0.00000000
Si       1.53461575      -1.27210240      -1.19813772       0.00000000
Si       0.85546936       1.64578197       1.40679871       0.00000000
Si      -0.85947670      -1.73139896       1.32347436       0.00000000
H        0.23573259       2.94549267       0.96123514       0.00000000
H       -2.62795169      -1.57415158       1.30036760       0.00000000
Si       2.55601505      -2.10918035       0.75566672       0.00000000
Si       0.13971933      -2.65764836      -2.51233436       0.00000000
Si      -2.59574684       0.08384365      -2.60852498       0.00000000
Si       0.04559571       2.73442314      -2.53984657       0.00000000
