10
Lattice="16.290000149 0.0 0.0 0.0 16.290000149 0.0 0.0 0.0 29.1751946751" Properties=species:S:1:pos:R:3:initial_magmoms:R:1 pbc="T T T"
Si       1.41532245       1.43508385       1.17158829       0.00000000
Si       1.43940070      -1.23962014      -1.36992127       0.00000000
Si      -1.28526472       1.42198669      -1.35562542       0.00000000
Si      -1.63595584      -1.05881743       1.43296886       0.00000000
H        0.25421034      -2.69027723       1.69318242       0.00000000
H       -1.09535590       1.41029047       2.81368495       0.00000000
Si      -0.06599079       2.51827112       2.59516274       0.00000000
Si      -2.63357174       2.47379942       0.26496912       0.00000000
Si      -3.31814271       0.61533847       1.68559687       0.00000000
Si       0.08205224      -2.65002464      -2.68426379       0.00000000
