10
Lattice="16.290000149 0.0 0.0 0.0 16.290000149 0.0 0.0 0.0 29.1751946751" Properties=species:S:1:pos:R:3:initial_magmoms:R:1 pbc="T T T"
Si       1.34578696       1.32931288      -1.38099617       0.00000000
Si      -1.33119764      -1.36018243      -1.37882845       0.00000000
Si      -1.35436202       1.38885283       1.32992207       0.00000000
Si       1.36953778      -1.34838847       1.36388200       0.00000000
Si      -2.62646442      -2.67416642       0.09085156       0.00000000
Si       2.70841289       2.69687468      -0.01773852       0.00000000
Si      -2.69524080       0.03593574       2.71533537       0.00000000
Si      -0.03977041       2.66923055      -2.75307057       0.00000000
Si       0.00994016       2.71868699       2.70926693       0.00000000
Si       2.72975279       0.00573408       2.71766938       0.00000000
