10
Lattice="16.290000149 0.0 0.0 0.0 16.290000149 0.0 0.0 0.0 29.1751946751" Properties=species:S:1:pos:R:3:initial_magmoms:R:1 pbc="T T T"
Si       1.35628261      -1.40810761       1.31270871       0.00000000
Si      -1.46141941       1.28254429       1.34141710       0.00000000
Si       1.19336632       1.69183055      -1.18693444       0.00000000
Si      -1.10730462      -1.70641010      -1.25024462       0.00000000
Si       2.36404718      -2.64715760      -0.53052174       0.00000000
Si      -2.77787508      -2.49127859       0.19529875       0.00000000
Si       2.52973277       0.05971914       2.76225492       0.00000000
Si      -2.86305549       2.45317628      -0.12090201       0.00000000
Si      -0.13233670      -2.60874578       2.74559005       0.00000000
Si       0.30665274      -3.65534571      -1.25307461       0.00000000
