10
Lattice="16.290000149 0.0 0.0 0.0 16.290000149 0.0 0.0 0.0 29.1751946751" Properties=species:S:1:pos:R:3:initial_magmoms:R:1 pbc="T T T"
Si       1.37078722      -1.34529337      -1.33925814       0.00000000
Si       1.37834578       1.33556824       1.34442215       0.00000000
Si      -1.34982199      -1.36475992       1.35664655       0.00000000
Si      -1.34599384       1.35918874      -1.36887096       0.00000000
Si       0.00009774       2.70184313       2.65654735       0.00000000
Si      -0.01461213      -2.69570180      -2.66410373       0.00000000
Si      -2.72077211      -0.00791694       2.68945697       0.00000000
Si       2.74170477       0.01264104      -2.67720339       0.00000000
Si      -2.69280218       0.00231318      -2.73155678       0.00000000
Si       2.73460233       2.69066819      -0.01382904       0.00000000
