10
Lattice="16.290000149 0.0 0.0 0.0 16.290000149 0.0 0.0 0.0 29.1751946751" Properties=species:S:1:pos:R:3:initial_magmoms:R:1 pbc="T T T"
Si      -1.39584124       1.28386378      -1.35807614       0.00000000
Si       1.43935183      -1.37049400      -1.23154332       0.00000000
Si      -1.37373571      -1.32015790       1.35865964       0.00000000
Si       0.87920389       1.88921648       1.06731615       0.00000000
Si      -2.43555050       0.14310765       2.83679170       0.00000000
Si       0.05616792      -2.72117936      -2.57150166       0.00000000
Si      -2.57810429       2.73571005       0.05566627       0.00000000
Si      -0.01026270       2.61822656      -2.69838458       0.00000000
Si       2.78115915      -0.03719007      -2.60371107       0.00000000
Si      -2.74486503      -0.05944221      -2.67119330       0.00000000
