10
Lattice="16.290000149 0.0 0.0 0.0 16.290000149 0.0 0.0 0.0 29.1751946751" Properties=species:S:1:pos:R:3:initial_magmoms:R:1 pbc="T T T"
Si       1.38994426       1.34509789       1.27550450       0.00000000
Si       1.25797897      -1.40111920      -1.36457929       0.00000000
Si      -1.31486365       1.26372934      -1.47260045       0.00000000
Si      -1.41099094      -1.40463784       1.25750341       0.00000000
Si      -2.17199459      -0.67279330      -2.51318920       0.00000000
Si      -0.46705059      -2.34152462      -2.63980692       0.00000000
Si      -0.03512124       2.70545951       2.54555908       0.00000000
Si       2.71979081      -0.06371019       2.58669610       0.00000000
Si       2.57927717      -0.07732863      -2.73183948       0.00000000
Si       2.68521104       2.65908188      -0.19417551       0.00000000
