10
Lattice="16.290000149 0.0 0.0 0.0 16.290000149 0.0 0.0 0.0 29.1751946751" Properties=species:S:1:pos:R:3:initial_magmoms:R:1 pbc="T T T"
Si      -1.30243438      -1.35402481       1.43461726       0.00000000
Si       1.36044796      -1.45849258      -1.28644812       0.00000000
Si       1.39052582       1.28677969       1.43511324       0.00000000
Si      -1.30065877       1.52932150      -1.31956780       0.00000000
Si       2.70633917       0.00360009      -2.51943882       0.00000000
Si      -2.53188956       2.73005285       0.27770701       0.00000000
Si      -2.64929159      -2.68674230       0.04577005       0.00000000
Si       2.80279227       2.67734297       0.17894022       0.00000000
Si      -2.64574037      -0.05116689       2.85915449       0.00000000
Si       0.10951963       2.63195903       2.89200576       0.00000000
