10
Lattice="16.290000149 0.0 0.0 0.0 16.290000149 0.0 0.0 0.0 29.1751946751" Properties=species:S:1:pos:R:3:initial_magmoms:R:1 pbc="T T T"
Si      -1.25384131       1.10683872      -1.60198076       0.00000000
Si      -1.89498314      -0.01877748       1.33908309       0.00000000
Si       1.57330450       1.68695821       0.44372554       0.00000000
Si       0.44033499      -2.28890955       0.29265638       0.00000000
H        1.83492191       0.55778915      -2.40047667       0.00000000
H       -2.07451523       1.36837467       1.95039094       0.00000000
Si      -1.06119577      -1.26373097       3.05151530       0.00000000
Si       2.05540706      -2.46433656      -1.38978957       0.00000000
Si       0.84256768       2.31870070       2.62366662       0.00000000
Si      -2.58706379       2.65201040      -0.44445492       0.00000000
