10
Lattice="16.290000149 0.0 0.0 0.0 16.290000149 0.0 0.0 0.0 29.1751946751" Properties=species:S:1:pos:R:3:initial_magmoms:R:1 pbc="T T T"
H       -0.91712701      -0.06946056       1.21015790       0.00000000
Si      -0.89197525       1.41967351      -1.59109842       0.00000000
Si       0.33063813      -2.12270105      -0.92943418       0.00000000
Si       1.89136676       1.33646419       0.38782586       0.00000000
H        0.98401375       0.34849197       2.45690149       0.00000000
H       -2.17878752      -1.83150101       0.79945868       0.00000000
Si       0.27448650       2.86865274       1.46850425       0.00000000
Si      -0.32979105       0.38665944      -3.60016067       0.00000000
Si      -1.73056817      -2.81569395      -1.83176460       0.00000000
Si       1.56123361      -3.44121366       0.58373730       0.00000000
