10
Lattice="16.290000149 0.0 0.0 0.0 16.290000149 0.0 0.0 0.0 29.1751946751" Properties=species:S:1:pos:R:3:initial_magmoms:R:1 pbc="T T T"
Si      -1.15857739      -0.12292434       2.05638442       0.00000000
Si      -1.54054531       1.00082503      -1.50129717       0.00000000
Si       0.95651623      -1.78140926      -1.26036841       0.00000000
Si       1.55870866       1.81656308       0.38549185       0.00000000
H        2.32630976       0.71781886      -1.58934791       0.00000000
Si       2.19100502      -0.46441161      -2.78672707       0.00000000
H        0.69458932      -2.97207795       1.93478221       0.00000000
H       -2.10391868      -2.82232398      -0.90553969       0.00000000
Si      -2.57453678       2.62450799      -0.18520414       0.00000000
Si      -0.26119386       2.44607172      -2.78897356       0.00000000
