10
Lattice="16.290000149 0.0 0.0 0.0 16.290000149 0.0 0.0 0.0 29.1751946751" Properties=species:S:1:pos:R:3:initial_magmoms:R:1 pbc="T T T"
Si       1.38813607       1.35925390      -1.30348935       0.00000000
Si       1.38209248      -1.34618932       1.33543619       0.00000000
Si      -1.31714425       1.37046142       1.38970205       0.00000000
Si      -1.33050205      -1.34570062      -1.41444261       0.00000000
Si       0.01736514       2.71999345      -2.61660651       0.00000000
Si       0.01506825      -2.68990256       2.67968328       0.00000000
Si      -2.67662784      -2.69333975      -0.04536743       0.00000000
Si      -2.66314461       2.73168967       0.03466013       0.00000000
Si       2.71235018       0.00737937      -2.68779398       0.00000000
Si      -2.69260182       0.02231730       2.74057191       0.00000000
