10
Lattice="16.290000149 0.0 0.0 0.0 16.290000149 0.0 0.0 0.0 29.1751946751" Properties=species:S:1:pos:R:3:initial_magmoms:R:1 pbc="T T T"
Si      -1.35894439      -1.36565587      -1.33038888       0.00000000
Si      -1.34767171       1.34605900       1.36706210       0.00000000
Si       1.33718095      -1.37182978       1.35507109       0.00000000
Si       1.33833754       1.35738055      -1.38004506       0.00000000
Si      -2.70326036       2.67660992      -0.02018923       0.00000000
Si       2.67851911      -0.01066995       2.71136754       0.00000000
Si       0.00638568      -2.71306694      -2.68023761       0.00000000
Si      -2.68822469       0.00120546      -2.70594096       0.00000000
Si       2.69036194       2.70967862      -0.01843872       0.00000000
Si      -2.70172910      -0.02695995       2.71163012       0.00000000
