10
Lattice="16.290000149 0.0 0.0 0.0 16.290000149 0.0 0.0 0.0 29.1751946751" Properties=species:S:1:pos:R:3:initial_magmoms:R:1 pbc="T T T"
Si      -1.34790026      -1.35366643       1.35743428       0.00000000
Si      -1.36858856       1.35681040      -1.34057102       0.00000000
Si       1.33020671      -1.34933329      -1.39148173       0.00000000
Si       1.31423274       1.36632376       1.39445760       0.00000000
Si       0.02956782       2.69166188      -2.67536535       0.00000000
Si       2.68133354      -2.70835913      -0.03165509       0.00000000
Si      -2.69223252       0.01164735       2.70786652       0.00000000
Si       2.68969031       2.71446788       0.04358774       0.00000000
Si      -2.71876893      -2.70172910       0.00201309       0.00000000
Si       2.70430244       0.01744659       2.72402958       0.00000000
