10
Lattice="16.290000149 0.0 0.0 0.0 16.290000149 0.0 0.0 0.0 29.1751946751" Properties=species:S:1:pos:R:3:initial_magmoms:R:1 pbc="T T T"
Si       1.43469289      -1.22295547      -1.28630516       0.00000000
Si      -1.22033278       1.53616330      -1.24122948       0.00000000
Si       1.48520818       1.01195110       1.47107167       0.00000000
Si      -1.12067056      -1.43990569       1.55270386       0.00000000
H        2.08143848      -2.06716844      -0.21026563       0.00000000
Si      -1.99705628       0.34179678       2.83579975       0.00000000
Si      -0.12391803       1.80327044       2.99410435       0.00000000
Si       2.46879839      -0.84532069       2.36575819       0.00000000
Si      -0.00643455      -2.55195884      -2.49666728       0.00000000
Si       0.70104016      -2.32676588       2.69870551       0.00000000
