10
Lattice="16.290000149 0.0 0.0 0.0 16.290000149 0.0 0.0 0.0 29.1751946751" Properties=species:S:1:pos:R:3:initial_magmoms:R:1 pbc="T T T"
Si       1.34767171      -1.34605900      -1.36706210       0.00000000
Si      -1.35405739      -1.37301895       1.34456802       0.00000000
Si      -1.35558865       1.33055092      -1.38725133       0.00000000
Si       1.36607941       1.33913575       1.37129250       0.00000000
Si      -0.01622484       2.68104080       2.70804157       0.00000000
Si      -2.72675054      -0.01384650       2.66635022       0.00000000
Si       2.68485266      -2.71788878      -0.01199101       0.00000000
Si      -0.01127268      -2.71171487      -2.69745097       0.00000000
Si      -2.73375524       2.67748958      -0.06514821       0.00000000
Si       2.71080263       2.71243163       0.01018214       0.00000000
