10
Lattice="16.290000149 0.0 0.0 0.0 16.290000149 0.0 0.0 0.0 29.1751946751" Properties=species:S:1:pos:R:3:initial_magmoms:R:1 pbc="T T T"
Si       1.27521379      -1.61912827       1.15735080       0.00000000
Si       1.23448879       1.31699764      -1.52635866       0.00000000
Si      -0.95651623       1.78140926       1.26036841       0.00000000
Si      -1.29236716      -1.66359998      -1.17284283       0.00000000
H        1.36979353       2.49922811      -0.32897950       0.00000000
H        0.24584868      -2.72710892       1.37587301       0.00000000
H       -3.06043491      -1.04091472       0.35482872       0.00000000
H       -2.47803482      -1.15587325      -1.97854500       0.00000000
H       -0.26192691      -1.19066869       3.19515062       0.00000000
H       -1.81395668       0.54128412      -3.08262189       0.00000000
