10
Lattice="16.290000149 0.0 0.0 0.0 16.290000149 0.0 0.0 0.0 29.1751946751" Properties=species:S:1:pos:R:3:initial_magmoms:R:1 pbc="T T T"
Si      -1.43405758       1.34643041      -1.26168129       0.00000000
Si      -1.37969785      -1.34376211       1.33505691       0.00000000
Si       1.34651512       1.38782819       1.33957906       0.00000000
Si       1.35482302      -1.32911740      -1.40058440       0.00000000
Si      -0.10019979       2.68594409      -2.59066684       0.00000000
Si      -0.01057221      -2.69195510       2.67641566       0.00000000
Si       2.70063767      -2.67418271      -0.03524364       0.00000000
Si       2.70656723       0.03482802       2.69228696       0.00000000
Si      -2.73059498       0.03305241       2.68330100       0.00000000
Si      -0.06618627      -2.78909238      -2.62559247       0.00000000
