10
Lattice="16.290000149 0.0 0.0 0.0 16.290000149 0.0 0.0 0.0 29.1751946751" Properties=species:S:1:pos:R:3:initial_magmoms:R:1 pbc="T T T"
Si       1.42560307       1.38999313       1.17993240       0.00000000
Si      -1.31874067       1.44130663      -1.27705662       0.00000000
Si       1.43469289      -1.32111901      -1.28297919       0.00000000
Si      -1.38557854      -1.33436278       1.34030844       0.00000000
Si       0.05760144      -2.66131361      -2.61570208       0.00000000
Si      -2.66885588       0.07967439      -2.62395866       0.00000000
Si       0.01026270      -2.61822656       2.69838458       0.00000000
Si      -2.56784159       0.11748348       2.75405085       0.00000000
Si       2.72383463       0.09901062       2.60715375       0.00000000
Si       0.06638175       2.80025103      -2.59478346       0.00000000
