10
Lattice="16.290000149 0.0 0.0 0.0 16.290000149 0.0 0.0 0.0 29.1751946751" Properties=species:S:1:pos:R:3:initial_magmoms:R:1 pbc="T T T"
Si       1.35311210       1.32895352      -1.32280333       0.00000000
Si      -1.25288020      -1.48131487      -1.27848621       0.00000000
Si      -1.26659638       1.39921116       1.38646360       0.00000000
Si       1.18560250      -1.51127218       1.38871009       0.00000000
H        1.32090724      -0.32904171       2.58608926       0.00000000
H       -1.86284297      -2.28698570      -0.16755314       0.00000000
Si      -0.11855862       2.62020091      -2.58985286       0.00000000
Si      -2.54594783      -0.04603554       2.67413999       0.00000000
Si       2.57308046       2.68885512       0.12825416       0.00000000
Si       2.73065200      -0.07367967      -2.61298879       0.00000000
