10
Lattice="16.290000149 0.0 0.0 0.0 16.290000149 0.0 0.0 0.0 29.1751946751" Properties=species:S:1:pos:R:3:initial_magmoms:R:1 pbc="T T T"
Si       2.23278887      -0.50938830       0.32005189       0.00000000
Si      -1.02495052       0.67507715       2.08103746       0.00000000
Si      -0.06157620       2.06651684      -1.29240277       0.00000000
Si      -0.66930724      -1.77665258      -1.58033277       0.00000000
Si      -2.36985293       1.97830975      -0.92920078       0.00000000
H       -0.62260381      -2.93806443       1.53750358       0.00000000
Si       2.79497307      -1.54240237      -1.68901037       0.00000000
Si      -3.08583102       1.41114896       1.23962485       0.00000000
Si       3.47633490       1.27791304      -0.51820981       0.00000000
Si       1.16641288      -3.22370958      -1.75445033       0.00000000
