10
Lattice="16.290000149 0.0 0.0 0.0 16.290000149 0.0 0.0 0.0 29.1751946751" Properties=species:S:1:pos:R:3:initial_magmoms:R:1 pbc="T T T"
Si      -1.30750057      -1.31494999      -1.44501822       0.00000000
Si      -1.32312268       1.39239917       1.36776230       0.00000000
Si       1.25957539      -1.39227862       1.42973041       0.00000000
Si       1.36721971       1.35908612      -1.37613558       0.00000000
Si      -2.66769929      -2.66900738      -0.11462934       0.00000000
Si       2.65844657       0.03096566       2.68341771       0.00000000
Si       2.69143382      -2.67553967       0.02033511       0.00000000
Si      -2.67100616       2.72619180      -0.03897806       0.00000000
Si       0.07613946       2.76431040       2.68160884       0.00000000
Si      -2.68177385       0.03142015      -2.78109626       0.00000000
