10
Lattice="16.290000149 0.0 0.0 0.0 16.290000149 0.0 0.0 0.0 29.1751946751" Properties=species:S:1:pos:R:3:initial_magmoms:R:1 pbc="T T T"
Si       0.92449009      -1.04454739       1.83474047       0.00000000
Si      -0.76694950      -2.04630095      -0.87884439       0.00000000
Si      -1.29904606       1.49960854       1.32122787       0.00000000
Si       1.99104527       0.59706109      -1.17234685       0.00000000
H       -0.26453331       2.67612122      -1.44110874       0.00000000
Si      -0.15837138      -1.53269353      -3.06243266       0.00000000
Si       2.25771257      -2.58971906       0.67721462       0.00000000
Si      -1.01335204      -2.07357041       2.73707089       0.00000000
Si       1.99596485       0.71488666       2.89805961       0.00000000
Si       0.29486529       2.31270761       2.88245088       0.00000000
