10
Lattice="16.290000149 0.0 0.0 0.0 16.290000149 0.0 0.0 0.0 29.1751946751" Properties=species:S:1:pos:R:3:initial_magmoms:R:1 pbc="T T T"
H       -0.88971094       0.84628180      -0.88742190       0.00000000
Si       1.03143394      -1.48822183      -1.47054651       0.00000000
Si      -1.39305565      -1.23251770       1.43107247       0.00000000
Si       1.90074980       1.30215745       0.62589545       0.00000000
Si       1.95335021       0.34448463      -2.64537325       0.00000000
Si       0.01764207       1.83425402      -2.95649753       0.00000000
H       -2.79085170       0.42832926      -2.13416549       0.00000000
Si       2.14519754       0.78635089       2.92823289       0.00000000
Si       0.00268785      -2.65826738       2.65666405       0.00000000
Si       2.53084700      -2.79906186      -0.17143344       0.00000000
