10
Lattice="16.290000149 0.0 0.0 0.0 16.290000149 0.0 0.0 0.0 29.1751946751" Properties=species:S:1:pos:R:3:initial_magmoms:R:1 pbc="T T T"
Si       0.96884776      -1.45290511      -1.51512621       0.00000000
Si      -1.69130927       0.92826937      -1.30920769       0.00000000
Si      -1.26566785      -1.48284613       1.32589590       0.00000000
Si       1.50589648       1.28788741       1.28204558       0.00000000
H       -1.15356007       1.18669393      -2.69389160       0.00000000
Si      -0.92973547      -2.95316526      -1.83301913       0.00000000
Si      -2.64396476      -2.51165738      -0.30581439       0.00000000
Si      -2.57261456      -0.05822046       2.62863807       0.00000000
Si       0.16480593       2.64083708       2.62982958       0.00000000
H        0.10810044       2.94873438      -2.28319238       0.00000000
