10
Lattice="16.290000149 0.0 0.0 0.0 16.290000149 0.0 0.0 0.0 29.1751946751" Properties=species:S:1:pos:R:3:initial_magmoms:R:1 pbc="T T T"
Si      -1.34685721      -1.33271749      -1.38884721       0.00000000
Si      -1.34330599       1.30285792       1.42453723       0.00000000
Si       1.30243438       1.35402481      -1.43461726       0.00000000
Si       1.34829073      -1.38484549       1.36192726       0.00000000
Si       2.69296020       2.64080450       0.00049598       0.00000000
Si      -2.68912064       2.64792323       0.05919647       0.00000000
Si       2.66288234      -0.10446777      -2.72106538       0.00000000
Si      -2.68837130      -2.75097378      -0.02870839       0.00000000
Si       0.01379763       2.65113236       2.79218283       0.00000000
Si       2.71259291      -0.05501133       2.74127212       0.00000000
