10
Lattice="16.290000149 0.0 0.0 0.0 16.290000149 0.0 0.0 0.0 29.1751946751" Properties=species:S:1:pos:R:3:initial_magmoms:R:1 pbc="T T T"
Si      -0.84686824       1.84438640      -1.12204881       0.00000000
Si       1.71422930      -0.44150787      -1.52720474       0.00000000
Si       1.37829691       1.02881125       1.63171029       0.00000000
Si      -1.39577608      -1.73675837       0.91443813       0.00000000
H        1.11387763      -0.53524053      -2.92720563       0.00000000
H       -2.00059121      -1.17374338      -2.18711847       0.00000000
Si       2.19273176      -2.47070432      -0.46794095       0.00000000
Si       0.32325876      -3.36644256       0.81025351       0.00000000
Si       2.64396476       2.51165738       0.30581439       0.00000000
Si      -2.56645694       2.60222978       0.25802542       0.00000000
