10
Lattice="16.290000149 0.0 0.0 0.0 16.290000149 0.0 0.0 0.0 29.1751946751" Properties=species:S:1:pos:R:3:initial_magmoms:R:1 pbc="T T T"
Si      -1.33201702      -1.35530195      -1.38281670       0.00000000
Si       1.33231024      -1.36605335       1.37210941       0.00000000
Si       1.35180937       1.35163996      -1.37269291       0.00000000
Si      -1.37088496       1.34116549       1.36434880       0.00000000
Si       0.00131949       2.72757482       2.67262288       0.00000000
Si      -2.69545745       2.70491543      -0.02745386       0.00000000
Si       2.70273420       0.00742661       2.70098117       0.00000000
Si       2.70197834      -2.70652488      -0.00767308       0.00000000
Si      -2.69228090      -2.71872609      -0.04072857       0.00000000
Si      -2.69206913      -0.00230178      -2.73552460       0.00000000
