10
Lattice="16.290000149 0.0 0.0 0.0 16.290000149 0.0 0.0 0.0 29.1751946751" Properties=species:S:1:pos:R:3:initial_magmoms:R:1 pbc="T T T"
H       -0.65130679       0.42207390      -0.04151630       0.00000000
Si       1.98667955       0.62608987       1.08003653       0.00000000
H       -1.79584220      -1.20879946       1.08085344       0.00000000
Si       0.75142513      -0.55454419      -2.50346510       0.00000000
Si       0.20733912       2.17403084       1.70733239       0.00000000
Si      -2.51463845      -1.28757790      -0.24507164       0.00000000
Si      -0.90551224      -2.07889724      -1.76810432       0.00000000
Si       2.61133589       0.28139346      -1.24642267       0.00000000
Si       1.22797279      -1.24675516       2.35995232       0.00000000
Si      -0.73748089       1.24421392      -2.62305423       0.00000000
