10
Lattice="16.290000149 0.0 0.0 0.0 16.290000149 0.0 0.0 0.0 29.1751946751" Properties=species:S:1:pos:R:3:initial_magmoms:R:1 pbc="T T T"
Si       1.34790026       1.35366643      -1.35743428       0.00000000
Si      -1.34433226       1.36531378       1.35043224       0.00000000
Si       1.34328970      -1.35780409       1.36878343       0.00000000
Si      -1.37086867      -1.34806267      -1.35542119       0.00000000
Si      -2.68060097      -0.08312787       2.60715375       0.00000000
Si       2.67052072      -2.70661610      -0.02689953       0.00000000
Si       2.66213300       2.71999019       0.03702332       0.00000000
Si      -0.02068830       2.71047683      -2.69800530       0.00000000
Si       2.69304816       0.01982493       2.71971165       0.00000000
Si      -0.02707398      -2.67841811      -2.74284758       0.00000000
