10
Lattice="16.290000149 0.0 0.0 0.0 16.290000149 0.0 0.0 0.0 29.1751946751" Properties=species:S:1:pos:R:3:initial_magmoms:R:1 pbc="T T T"
Si       1.38152559      -1.26395740       1.37304301       0.00000000
Si      -1.31086934      -1.41165883      -1.31002459       0.00000000
Si       1.44419322       1.37596744      -1.23364393       0.00000000
Si      -1.45878255       1.27723375       1.38167887       0.00000000
Si       2.06002039       0.58867174       2.67413999       0.00000000
Si       0.44499719       2.30221685       2.60216479       0.00000000
Si      -2.63576764      -0.06335181      -2.67168928       0.00000000
Si       0.08626695       2.71482626      -2.62002001       0.00000000
H       -1.32347780       2.45946422       2.57905803       0.00000000
Si       0.07818060      -2.74106946      -2.63562874       0.00000000
