10
Lattice="16.290000149 0.0 0.0 0.0 16.290000149 0.0 0.0 0.0 29.1751946751" Properties=species:S:1:pos:R:3:initial_magmoms:R:1 pbc="T T T"
Si       1.32265027      -1.48824278      -1.20708283       0.00000000
Si       1.36039420       1.28278072       1.40987670       0.00000000
Si      -1.35003376      -1.39498253       1.31062268       0.00000000
Si      -1.38323278       1.32482522      -1.36500816       0.00000000
Si       2.69425199       2.62229440       0.08089114       0.00000000
Si      -2.69899238       2.64791858       0.03519112       0.00000000
Si      -2.67424787      -0.04310800       2.69492732       0.00000000
Si       0.03008763       2.70244121       2.69589010       0.00000000
Si       0.03482802      -2.75187438       2.64985164       0.00000000
Si      -2.68701923      -2.71981566      -0.09411334       0.00000000
