10
Lattice="16.290000149 0.0 0.0 0.0 16.290000149 0.0 0.0 0.0 29.1751946751" Properties=species:S:1:pos:R:3:initial_magmoms:R:1 pbc="T T T"
Si      -1.32942365       1.36182772      -1.36189809       0.00000000
Si       1.30899925       1.42917058       1.32420374       0.00000000
Si      -1.34246380      -1.36715455       1.36262747       0.00000000
Si       1.37769418      -1.34770429      -1.35577130       0.00000000
Si       2.66416436       0.07198551       2.62886009       0.00000000
Si      -2.64979658       2.69848739       0.04665114       0.00000000
Si       2.68161095       2.68245803      -0.10733554       0.00000000
Si      -2.67076181       0.00066789      -2.71819454       0.00000000
Si      -2.61467583      -0.00754227       2.78663954       0.00000000
Si       0.02244762      -2.71437014      -2.69494191       0.00000000
