10
Lattice="16.290000149 0.0 0.0 0.0 16.290000149 0.0 0.0 0.0 29.1751946751" Properties=species:S:1:pos:R:3:initial_magmoms:R:1 pbc="T T T"
Si      -1.30895038      -1.28950012       1.47052901       0.00000000
Si      -1.34845363       1.36265851      -1.37622311       0.00000000
Si       1.43146747      -1.37182978      -1.28446129       0.00000000
Si       1.37171575       1.40642974       1.31207852       0.00000000
Si      -2.62083296      -2.64981287       0.12543583       0.00000000
Si       2.64859112       0.06237441      -2.72696460       0.00000000
Si       2.74633113      -2.63555912       0.18813916       0.00000000
Si      -2.71161713       2.70951572       0.01530239       0.00000000
Si       2.71120988       0.06990039       2.73369824       0.00000000
Si      -2.73680148      -0.01702305      -2.71719091       0.00000000
