10
Lattice="16.290000149 0.0 0.0 0.0 16.290000149 0.0 0.0 0.0 29.1751946751" Properties=species:S:1:pos:R:3:initial_magmoms:R:1 pbc="T T T"
Si       0.60996277       0.80567083      -1.11093306       0.00000000
H       -1.46074060      -0.93234187      -0.52871288       0.00000000
H       -0.66407815      -1.69715738       1.10407689       0.00000000
Si      -2.26235522       0.92939338       1.63815801       0.00000000
Si       1.86284297       2.28698570       0.16755314       0.00000000
Si       0.52158951      -2.20488410       1.90977907       0.00000000
Si       1.87146038      -0.56487205      -2.49710491       0.00000000
Si      -2.55194255       1.82096138      -0.60197179       0.00000000
Si      -0.97096546       1.89872984      -2.41194252       0.00000000
Si      -2.29806290      -1.86202847      -1.35346646       0.00000000
