10
Lattice="16.290000149 0.0 0.0 0.0 16.290000149 0.0 0.0 0.0 29.1751946751" Properties=species:S:1:pos:R:3:initial_magmoms:R:1 pbc="T T T"
Si       1.06181479      -1.46326555      -1.47813206       0.00000000
Si      -1.31448898      -1.35534430       1.38733886       0.00000000
Si      -1.44567235       1.35057133      -1.28551743       0.00000000
Si       1.81377749       0.75465055       1.38372113       0.00000000
Si       2.15822954      -1.19615842       2.75720177       0.00000000
Si       0.28509129      -2.65763207       2.59889717       0.00000000
Si       2.43555050      -0.14310765      -2.83679170       0.00000000
Si      -2.70065396       0.12266370       2.60274829       0.00000000
Si       2.28214757      -2.99942886      -0.23690258       0.00000000
Si      -0.14255379       2.59260239      -2.78112543       0.00000000
