10
Lattice="16.290000149 0.0 0.0 0.0 16.290000149 0.0 0.0 0.0 29.1751946751" Properties=species:S:1:pos:R:3:initial_magmoms:R:1 pbc="T T T"
Si       1.37841094       1.36409203       1.30477306       0.00000000
Si      -1.31704651       1.39162213      -1.34127122       0.00000000
Si       1.32724405      -1.35907471      -1.36615767       0.00000000
Si      -1.37091754      -1.35793441       1.33794525       0.00000000
Si      -2.62892909       0.03130938      -2.68636440       0.00000000
Si      -0.00710244       2.67802715       2.66337435       0.00000000
Si       2.73823500       0.04556313      -2.62366107       0.00000000
Si       2.70769124      -0.00276930       2.68032513       0.00000000
Si      -0.09215253      -2.78848965      -2.60189929       0.00000000
Si      -0.00832419      -2.72363915       2.67343979       0.00000000
