10
Lattice="16.290000149 0.0 0.0 0.0 16.290000149 0.0 0.0 0.0 29.1751946751" Properties=species:S:1:pos:R:3:initial_magmoms:R:1 pbc="T T T"
Si       1.82171072      -0.88686019       1.14600165       0.00000000
Si      -0.87638572       1.78170248       1.28309589       0.00000000
Si       1.12067056       1.43990569      -1.55270386       0.00000000
Si      -1.02884383      -2.14842296      -0.39348585       0.00000000
H       -1.92728621      -0.57348946      -1.88037047       0.00000000
Si       2.60587874       2.45185679      -0.08163219       0.00000000
Si      -0.04792518      -2.55022396      -2.54369770       0.00000000
Si      -1.95455567       0.61740730       2.99171199       0.00000000
Si       0.99675253       3.24317613       1.44140049       0.00000000
H        3.20210904      -0.62726275      -1.76296949       0.00000000
