10
Lattice="16.290000149 0.0 0.0 0.0 16.290000149 0.0 0.0 0.0 29.1751946751" Properties=species:S:1:pos:R:3:initial_magmoms:R:1 pbc="T T T"
Si      -1.23043258       1.85062547       0.66545702       0.00000000
Si      -1.53378496      -0.72321085      -1.61026652       0.00000000
Si       1.62078985       0.67399876      -1.56297353       0.00000000
Si       0.07255566      -1.46173429       1.93192304       0.00000000
H        0.33417306      -2.59090335      -0.91227916       0.00000000
H        0.06646320       2.40083651       1.58637204       0.00000000
H        1.55354473      -0.40272138      -2.62290835       0.00000000
Si      -2.75459016      -2.04185378      -0.11378326       0.00000000
H       -0.27052803       3.09353619      -2.00947071       0.00000000
Si       2.31710591      -1.97356610       2.20304813       0.00000000
