10
Lattice="16.290000149 0.0 0.0 0.0 16.290000149 0.0 0.0 0.0 29.1751946751" Properties=species:S:1:pos:R:3:initial_magmoms:R:1 pbc="T T T"
H        0.64674559      -0.84421297       1.07603953       0.00000000
Si      -1.43469289       1.22295547       1.28630516       0.00000000
Si      -1.44112744      -1.32900337      -1.21036213       0.00000000
Si       1.50074884       1.36260964      -1.16187295       0.00000000
Si       0.05051529       2.23490657       2.75737682       0.00000000
Si       0.07980471      -2.64678293      -2.40727449       0.00000000
Si       1.06223833      -3.50516006      -0.41910167       0.00000000
Si       0.15806187       2.70878267      -2.54512728       0.00000000
Si      -2.68297931       0.06043590      -2.58200473       0.00000000
Si       2.79645546      -0.59355874       2.39738410       0.00000000
