10
Lattice="16.290000149 0.0 0.0 0.0 16.290000149 0.0 0.0 0.0 29.1751946751" Properties=species:S:1:pos:R:3:initial_magmoms:R:1 pbc="T T T"
Si       0.06724512       1.07672014       1.05993482       0.00000000
H        1.14915037       1.81128512      -1.92888882       0.00000000
Si      -2.45436545      -1.39963681      -1.03113891       0.00000000
H       -1.21937167      -2.18818196       1.71062919       0.00000000
Si      -1.55354473       0.40272138       2.62290835       0.00000000
Si      -0.45867753      -2.28697430      -2.01886512       0.00000000
Si       2.26295306       1.26913762       1.71938175       0.00000000
Si      -0.38152809       3.21088935       0.17187107       0.00000000
Si      -3.08732970      -0.32048946       1.01264183       0.00000000
Si       2.28530946       0.84281203      -2.21789830       0.00000000
