10
Lattice="16.290000149 0.0 0.0 0.0 16.290000149 0.0 0.0 0.0 29.1751946751" Properties=species:S:1:pos:R:3:initial_magmoms:R:1 pbc="T T T"
Si      -1.38759850      -1.27457848      -1.37776064       0.00000000
Si       1.20286990      -1.39740508       1.44129838       0.00000000
Si      -1.41938029       1.38137572       1.28400907       0.00000000
Si       1.87471838       0.80210332      -1.19493924       0.00000000
Si       2.51862950      -2.72049844       0.04109910       0.00000000
Si       2.63155178       0.00648342       2.68364527       0.00000000
Si       2.68452686       2.66144393      -0.01442130       0.00000000
Si       3.50788863      -0.93346588      -1.11110811       0.00000000
Si      -0.09884772       2.72223821       2.67830621       0.00000000
Si      -2.72344693      -2.68130144      -0.02513735       0.00000000
