10
Lattice="16.290000149 0.0 0.0 0.0 16.290000149 0.0 0.0 0.0 29.1751946751" Properties=species:S:1:pos:R:3:initial_magmoms:R:1 pbc="T T T"
Si       1.30515481      -1.37911141       1.37318889       0.00000000
Si      -1.37220445      -1.38640933      -1.30827408       0.00000000
Si      -1.32305752       1.36782244       1.37706919       0.00000000
Si       1.35586558       1.34778574      -1.37070900       0.00000000
Si      -2.68304447       2.69265557      -0.01414997       0.00000000
Si       2.68416360      -0.02003670       2.71011301       0.00000000
Si      -2.69677694      -0.02265939      -2.70007674       0.00000000
Si      -0.00131949      -2.72757482      -2.67262288       0.00000000
Si       2.69720374       2.70894557      -0.01441255       0.00000000
Si      -2.66328470       0.01881495       2.74947035       0.00000000
