10
Lattice="16.290000149 0.0 0.0 0.0 16.290000149 0.0 0.0 0.0 29.1751946751" Properties=species:S:1:pos:R:3:initial_magmoms:R:1 pbc="T T T"
Si      -1.34581465       1.34506531      -1.36534076       0.00000000
Si      -1.35576784      -1.37064061       1.34605596       0.00000000
Si       1.35710362       1.34827444       1.36764560       0.00000000
Si       1.34330599      -1.30285792      -1.42453723       0.00000000
Si      -2.76682395      -0.11490966      -2.59034883       0.00000000
Si       0.11385081       2.78121974      -2.58144748       0.00000000
Si      -2.70063767       2.67418271       0.03524364       0.00000000
Si       2.69159672      -2.68770341      -0.06260997       0.00000000
Si       0.00692325      -2.71026506       2.71022971       0.00000000
Si      -2.71120988      -0.01777239       2.71165929       0.00000000
