10
Lattice="16.290000149 0.0 0.0 0.0 16.290000149 0.0 0.0 0.0 29.1751946751" Properties=species:S:1:pos:R:3:initial_magmoms:R:1 pbc="T T T"
Si      -1.46995423       1.21145473       1.33076815       0.00000000
Si       1.20343028       1.52329420      -1.29882132       0.00000000
Si      -0.23479103      -1.84935485      -1.44157554       0.00000000
Si       1.43277719      -1.18926775       1.44542667       0.00000000
H       -2.94133220      -1.26410401      -1.42278672       0.00000000
Si       2.07611817      -2.03548439      -2.03397787       0.00000000
Si      -2.62364462      -0.42792201       2.51145911       0.00000000
Si       2.55162327       0.17034453      -2.63416998       0.00000000
Si       3.15236589      -1.94711114       0.06535244       0.00000000
Si      -0.01221261       2.59478525       2.68216317       0.00000000
