10
Lattice="16.290000149 0.0 0.0 0.0 16.290000149 0.0 0.0 0.0 29.1751946751" Properties=species:S:1:pos:R:3:initial_magmoms:R:1 pbc="T T T"
Si       1.36309834       1.35009892      -1.34999461       0.00000000
Si       1.37355652      -1.35221662       1.34596843       0.00000000
Si      -1.35226549       1.36295173       1.35900974       0.00000000
Si      -1.36910935      -1.36169740      -1.35288295       0.00000000
Si      -0.02682963       2.69820395      -2.68327183       0.00000000
Si      -0.00270414      -2.67118535       2.71037559       0.00000000
Si       2.66426210      -2.72016938      -0.06625687       0.00000000
Si       2.72391608       2.69239982       0.02897097       0.00000000
Si       2.68089419      -0.01839141      -2.73590388       0.00000000
Si      -2.69160487       0.01286910       2.72598431       0.00000000
