10
Lattice="16.290000149 0.0 0.0 0.0 16.290000149 0.0 0.0 0.0 29.1751946751" Properties=species:S:1:pos:R:3:initial_magmoms:R:1 pbc="T T T"
Si      -0.45986670      -1.28418958       0.65650023       0.00000000
H        0.50777559      -1.53644023      -1.81927761       0.00000000
Si       1.53714070      -0.42845958      -2.03779982       0.00000000
Si       2.70654117      -0.58525084      -0.01878883       0.00000000
Si      -1.27566991      -0.29439288       2.59554202       0.00000000
Si       1.55098720      -2.64754856       0.57381773       0.00000000
Si      -2.33966756      -1.98669584      -0.62090649       0.00000000
Si      -2.77508298       1.01644714       1.29642895       0.00000000
Si      -1.85316671       2.84915361       0.12160221       0.00000000
Si       0.26192691       1.19066869      -3.19515062       0.00000000
