10
Lattice="16.290000149 0.0 0.0 0.0 16.290000149 0.0 0.0 0.0 29.1751946751" Properties=species:S:1:pos:R:3:initial_magmoms:R:1 pbc="T T T"
Si       1.34876314       1.38627901       1.32537074       0.00000000
Si      -1.33916507       1.35754345      -1.36431963       0.00000000
Si       1.38795688      -1.35224920      -1.33321887       0.00000000
Si      -1.35100790      -1.36280512       1.36548664       0.00000000
Si       2.66002670      -0.04217481       2.62004918       0.00000000
Si      -2.66639609       2.70635546       0.03136333       0.00000000
Si       0.04013856      -2.71366967      -2.68464306       0.00000000
Si      -2.69234606      -2.72396495       0.00919019       0.00000000
Si      -2.69118947       0.00524538      -2.72592596       0.00000000
Si       0.01954800       2.70946685      -2.72650947       0.00000000
