10
Lattice="16.290000149 0.0 0.0 0.0 16.290000149 0.0 0.0 0.0 29.1751946751" Properties=species:S:1:pos:R:3:initial_magmoms:R:1 pbc="T T T"
Si      -1.74685817      -0.32205493       1.49190276       0.00000000
Si       0.11616399      -2.30533639      -0.23421846       0.00000000
Si      -0.98243362       0.85837712      -1.98817282       0.00000000
Si       1.83143585       1.19013927       1.00531886       0.00000000
H       -0.41549274       2.66094709       1.49514120       0.00000000
Si      -2.50336577       2.17615668      -0.79126045       0.00000000
Si       1.69714109      -2.22756793      -2.04418919       0.00000000
Si      -1.06223833       3.50516006       0.41910167       0.00000000
Si       0.40575132      -3.19690438       2.00591133       0.00000000
Si      -3.66552696       0.73798588       0.71441299       0.00000000
