10
Lattice="16.28999089631971 0.0 0.0 0.0 16.28999089631971 0.0 0.0 0.0 34.279985188174585" Properties=species:S:1:pos:R:3:initial_magmoms:R:1 pbc="T T T"
Si       1.35725022      -1.35733167      -1.35673401       0.00000000
Si       1.35703845       1.35664749       1.35827661       0.00000000
Si      -1.35729909       1.35738054      -1.35731677       0.00000000
Si      -1.35809730      -1.35832210       1.35752245       0.00000000
Si       2.71332756       0.00065160      -2.71384510       0.00000000
Si      -0.00065160      -2.71381860      -2.71350230       0.00000000
Si       0.00114030       2.71370223      -2.71387938       0.00000000
Si      -2.71378368      -0.00166158      -2.71490778       0.00000000
Si      -0.00242721      -2.71205945       2.71720454       0.00000000
Si      -2.71489140      -2.71491575      -0.00044564       0.00000000
