10
Lattice="16.28999089631971 0.0 0.0 0.0 16.28999089631971 0.0 0.0 0.0 34.279985188174585" Properties=species:S:1:pos:R:3:initial_magmoms:R:1 pbc="T T T"
Si      -2.14775505      -0.41142743       0.81877790       0.00000000
Si       0.47552139       2.29674339       0.25336351       0.00000000
Si       0.11666898      -0.11689753      -2.44550123       0.00000000
Si       1.38684915      -1.12903451       1.68482793       0.00000000
Si      -1.75185918      -2.75011757       0.48012574       0.00000000
Si       3.28276080      -0.32904890       0.63274032       0.00000000
Si       2.89745343       1.95875847       0.31153668       0.00000000
Si      -0.48913983       3.10792023      -1.76802550       0.00000000
Si       0.28803978      -3.83358176      -0.02049944       0.00000000
Si      -2.34913203       0.20665494       3.15746264       0.00000000
