10
Lattice="16.28999089631971 0.0 0.0 0.0 16.28999089631971 0.0 0.0 0.0 34.279985188174585" Properties=species:S:1:pos:R:3:initial_magmoms:R:1 pbc="T T T"
Si      -1.84241529       1.38709187       0.26467591       0.00000000
Si       0.06248844      -1.14362220      -2.05412642       0.00000000
Si       0.24066846      -1.68834351       1.62919149       0.00000000
Si       2.00047716       1.22405178       0.32970508       0.00000000
Si      -1.58363235       1.34484701       2.67411458       0.00000000
Si       3.54794571      -0.48578313       0.20948511       0.00000000
Si       2.43755415      -2.42870772       1.07666638       0.00000000
Si       1.95840009      -0.34363659      -3.10621403       0.00000000
Si      -0.09428652      -0.53401782       3.67886151       0.00000000
Si      -3.67349274       0.19206725      -0.58149171       0.00000000
