10
Lattice="16.28999089631971 0.0 0.0 0.0 16.28999089631971 0.0 0.0 0.0 34.279985188174585" Properties=species:S:1:pos:R:3:initial_magmoms:R:1 pbc="T T T"
Si       1.35718506       1.34547255      -1.36225309       0.00000000
Si       1.42537500      -1.28889738       1.35913361       0.00000000
Si      -1.35550719      -1.37187864      -1.36074477       0.00000000
Si      -1.35775521       1.34907264       1.42423134       0.00000000
Si       0.02391372      -2.58861132       2.74178331       0.00000000
Si      -2.71129131       2.69547372       0.00092556       0.00000000
Si       2.71552671       2.70528030       0.00952984       0.00000000
Si       0.00188964       2.70068652      -2.72152383       0.00000000
Si      -2.71282257      -0.01387908      -2.72094106       0.00000000
Si       2.71637379      -0.01480761      -2.72063254       0.00000000
