10
Lattice="16.28999089631971 0.0 0.0 0.0 16.28999089631971 0.0 0.0 0.0 34.279985188174585" Properties=species:S:1:pos:R:3:initial_magmoms:R:1 pbc="T T T"
Si      -0.40538317      -0.97328270       2.09142307       0.00000000
Si       1.71528324      -1.25519241      -0.98781261       0.00000000
Si       0.93386823       2.16719717       0.05292833       0.00000000
Si      -2.03779333      -0.34341926      -1.18416847       0.00000000
Si      -1.00106139      -3.11300175       1.15965827       0.00000000
Si       2.69581092       0.32234163      -2.45389983       0.00000000
Si      -2.34350776      -2.71809957      -0.90214687       0.00000000
Si       1.67359713       2.41179151      -2.37447306       0.00000000
Si      -0.66681323       3.60122215       1.12452126       0.00000000
Si      -1.99206730       0.35510245       3.28933782       0.00000000
