10
Lattice="16.28999089631971 0.0 0.0 0.0 16.28999089631971 0.0 0.0 0.0 34.279985188174585" Properties=species:S:1:pos:R:3:initial_magmoms:R:1 pbc="T T T"
Si      -0.40316121       2.26388646       0.46219730       0.00000000
Si      -0.60940890       0.13545135      -2.27447829       0.00000000
Si       2.29734612      -0.57937014       0.21822651       0.00000000
Si      -1.03249278      -1.60119297       1.42532830       0.00000000
Si       0.84315411      -1.52262630      -3.18646352       0.00000000
Si       0.75781080       3.33922194      -1.28570584       0.00000000
Si       2.84654718      -1.19887884      -1.99331369       0.00000000
Si      -1.05120999      -0.48524652       3.56299509       0.00000000
Si       2.31321258      -2.36581299       1.76305490       0.00000000
Si       0.34857342      -3.56545746       1.34099949       0.00000000
