10
Lattice="16.28999089631971 0.0 0.0 0.0 16.28999089631971 0.0 0.0 0.0 34.279985188174585" Properties=species:S:1:pos:R:3:initial_magmoms:R:1 pbc="T T T"
Si      -1.35353610       1.34640108      -1.42330578       0.00000000
Si       1.35775521      -1.34907264      -1.42423134       0.00000000
Si      -1.39382127      -1.41599196       1.39228238       0.00000000
Si       1.35984033       1.53609813       1.42769362       0.00000000
Si      -2.78982540       2.59717986      -0.01594020       0.00000000
Si       2.78313021      -2.63797002      -0.06509773       0.00000000
Si      -2.58795972       0.05450634       2.87009336       0.00000000
Si      -2.71181259      -0.00620649      -2.78501039       0.00000000
Si       0.00408879       2.71228500      -2.78706719       0.00000000
Si       2.71494027      -0.00360009      -2.78648443       0.00000000
