10
Lattice="16.28999089631971 0.0 0.0 0.0 16.28999089631971 0.0 0.0 0.0 34.279985188174585" Properties=species:S:1:pos:R:3:initial_magmoms:R:1 pbc="T T T"
Si      -0.24061959      -2.29879593       0.29477376       0.00000000
Si       0.13431105       0.98738577       2.10626631       0.00000000
Si      -2.06495298       0.64834200      -0.92364044       0.00000000
Si       1.63439199       0.84686823      -1.53776671       0.00000000
Si      -0.73774152      -2.90460474      -1.93836285       0.00000000
Si       0.47923551       0.52613442      -3.50766716       0.00000000
Si      -1.96825554       1.95463710       2.46963435       0.00000000
Si       1.75622490       2.68596036       1.88097812       0.00000000
Si      -1.56066345       1.60959861      -3.00704198       0.00000000
Si      -2.85218352       2.42823627       0.35956297       0.00000000
