10
Lattice="16.28999089631971 0.0 0.0 0.0 16.28999089631971 0.0 0.0 0.0 34.279985188174585" Properties=species:S:1:pos:R:3:initial_magmoms:R:1 pbc="T T T"
Si       0.40291686      -1.81268604       1.44665046       0.00000000
Si       2.29806288       0.68401710      -0.04919181       0.00000000
Si      -1.74356757       1.60622658       0.40584097       0.00000000
Si      -0.62196849      -1.23248511      -1.97487105       0.00000000
Si       2.87639046      -0.05001030      -2.25404741       0.00000000
Si       1.47183408      -1.86554709      -2.78963819       0.00000000
Si       0.95571801      -0.65485800       3.57643285       0.00000000
Si      -1.92054213       2.86161543      -1.62284969       0.00000000
Si      -1.54481328      -3.28339611      -1.31453533       0.00000000
Si      -1.23538473      -3.50546139       1.05387017       0.00000000
