10
Lattice="16.28999089631971 0.0 0.0 0.0 16.28999089631971 0.0 0.0 0.0 34.279985188174585" Properties=species:S:1:pos:R:3:initial_magmoms:R:1 pbc="T T T"
Si       1.43374806      -1.22523606       1.45410636       0.00000000
Si       1.81482003       0.84338217      -1.29874051       0.00000000
Si      -1.27900935       1.49099112       1.41114323       0.00000000
Si      -0.76260006      -1.97869743      -1.30158575       0.00000000
Si      -2.54943224      -2.58466262       0.14309845       0.00000000
Si       0.60722604       0.43789149      -3.65744477       0.00000000
Si       2.73378780      -2.62344260       0.08906974       0.00000000
Si       0.08935065      -2.58578012       2.81285261       0.00000000
Si       3.59429076      -0.77002830      -1.09689741       0.00000000
Si      -2.62907731       0.13014081       2.80644225       0.00000000
