10
Lattice="16.28999089631971 0.0 0.0 0.0 16.28999089631971 0.0 0.0 0.0 34.279985188174585" Properties=species:S:1:pos:R:3:initial_magmoms:R:1 pbc="T T T"
Si       1.15515648       0.32073381       1.96990045       0.00000000
Si       1.40017437       0.67056156      -1.76370622       0.00000000
Si      -0.05600502      -2.35540368      -0.17859882       0.00000000
Si      -2.03989896       1.08346419       0.50062518       0.00000000
Si       1.09880937       2.70454725       1.70532738       0.00000000
Si      -2.99586132       0.41347278      -1.51877559       0.00000000
Si      -0.47923551      -0.52613442       3.50766716       0.00000000
Si      -2.54418849       0.12220758       2.58402673       0.00000000
Si       2.06659827      -2.92809492      -0.94489404       0.00000000
Si       2.11805838      -1.35985662      -2.72464331       0.00000000
