10
Lattice="16.28999089631971 0.0 0.0 0.0 16.28999089631971 0.0 0.0 0.0 34.279985188174585" Properties=species:S:1:pos:R:3:initial_magmoms:R:1 pbc="T T T"
Si      -1.35614250      -1.35688532       1.35608269       0.00000000
Si       1.35824391       1.35720135       1.35659689       0.00000000
Si      -1.35785295       1.35710361      -1.35748817       0.00000000
Si       1.35736425      -1.35805495      -1.35786525       0.00000000
Si       2.71417464       2.71448415       0.00006856       0.00000000
Si       2.71531494      -0.00091224      -2.71425646       0.00000000
Si      -2.71277370      -0.00330687       2.71689602       0.00000000
Si      -0.00172674       2.71511946      -2.71473638       0.00000000
Si      -2.71524978       2.71479366      -0.00020568       0.00000000
Si       2.71477737      -2.71541707       0.00013712       0.00000000
