10
Lattice="16.28999089631971 0.0 0.0 0.0 16.28999089631971 0.0 0.0 0.0 34.279985188174585" Properties=species:S:1:pos:R:3:initial_magmoms:R:1 pbc="T T T"
Si       0.99455337      -0.95097762       1.85502816       0.00000000
Si      -2.19923145       0.55429983       0.50662418       0.00000000
Si      -0.45812367      -1.34793560      -1.85646792       0.00000000
Si       1.40651118       1.82218311      -0.59362684       0.00000000
Si      -2.09960181       2.47433697      -0.82316574       0.00000000
Si      -0.24079878       0.30897243      -3.51428321       0.00000000
Si      -0.11170053       3.59012052      -0.24184543       0.00000000
Si       1.90498518       0.94791510       2.94221849       0.00000000
Si      -0.66287268      -2.38171855       2.70256698       0.00000000
Si       3.15292950       1.59440004       0.98613289       0.00000000
