10
Lattice="16.28999089631971 0.0 0.0 0.0 16.28999089631971 0.0 0.0 0.0 34.279985188174585" Properties=species:S:1:pos:R:3:initial_magmoms:R:1 pbc="T T T"
Si      -0.89215280       1.15803981      -1.88303492       0.00000000
Si       1.12018185      -1.98422693      -0.85230375       0.00000000
Si      -2.31351299      -0.71076691       0.31472472       0.00000000
Si       1.10179044       0.57186045       2.10794603       0.00000000
Si       1.23768162       1.90645128      -2.52564788       0.00000000
Si      -1.91635886      -1.60045082       2.41205187       0.00000000
Si       0.70428186      -1.54939796      -3.11385847       0.00000000
Si      -0.68504174      -0.03410474       3.55263023       0.00000000
Si      -0.46863072      -3.71218868      -0.33087060       0.00000000
Si       2.97289242      -1.08433408       2.02779938       0.00000000
