10
Lattice="16.28999089631971 0.0 0.0 0.0 16.28999089631971 0.0 0.0 0.0 34.279985188174585" Properties=species:S:1:pos:R:3:initial_magmoms:R:1 pbc="T T T"
Si      -1.35643572      -1.35648459      -1.35796809       0.00000000
Si       1.35894438       1.35767376      -1.35776241       0.00000000
Si      -1.35918873       1.36028016       1.35837945       0.00000000
Si       1.36275624      -1.35767376       1.36043625       0.00000000
Si      -2.71391400       0.00102627      -2.71528486       0.00000000
Si       0.00096111      -2.71417464      -2.71525058       0.00000000
Si       2.71430496       2.71528236       0.00006856       0.00000000
Si      -2.71459818      -2.71520091       0.00027424       0.00000000
Si      -2.71448415       2.71549413      -0.00089128       0.00000000
Si       0.00105885       2.71580364      -2.71531914       0.00000000
