10
Lattice="16.28999089631971 0.0 0.0 0.0 16.28999089631971 0.0 0.0 0.0 34.279985188174585" Properties=species:S:1:pos:R:3:initial_magmoms:R:1 pbc="T T T"
Si      -1.35496962      -1.35702216      -1.37401113       0.00000000
Si      -1.29200877       1.44347319       1.34662141       0.00000000
Si       1.36174626       1.35988920      -1.37270849       0.00000000
Si       1.19835756      -1.40877549       1.55782052       0.00000000
Si       2.71992501      -2.70426380       0.02588140       0.00000000
Si      -2.69347005       0.14375925       2.72927111       0.00000000
Si      -2.72632698      -2.70275372      -0.01055824       0.00000000
Si       2.71034649       2.71899648       0.01803128       0.00000000
Si       0.00166158      -2.71060061      -2.73482447       0.00000000
Si      -2.71560816       0.00236205      -2.73287051       0.00000000
