10
Lattice="16.28999089631971 0.0 0.0 0.0 16.28999089631971 0.0 0.0 0.0 34.279985188174585" Properties=species:S:1:pos:R:3:initial_magmoms:R:1 pbc="T T T"
Si      -0.11691333       2.00080296       1.20617623       0.00000000
Si       1.83039327      -1.46663757       0.15295738       0.00000000
Si       0.40045707       0.87791697      -2.19895944       0.00000000
Si      -2.13381081      -0.86346774       0.71292125       0.00000000
Si      -2.53179180      -1.52707347      -1.51401067       0.00000000
Si      -1.46300490       2.30226570      -2.23505628       0.00000000
Si       0.73283823      -3.52279395      -0.28603236       0.00000000
Si      -2.04133248       3.03629310      -0.03020068       0.00000000
Si       1.35964485       3.41451432       0.06588617       0.00000000
Si       2.07562293       2.48945409      -2.02930770       0.00000000
