10
Lattice="16.28999089631971 0.0 0.0 0.0 16.28999089631971 0.0 0.0 0.0 34.279985188174585" Properties=species:S:1:pos:R:3:initial_magmoms:R:1 pbc="T T T"
Si       1.32304122      -1.44000342      -1.28074895       0.00000000
Si      -1.34904006      -1.36928853       1.35299064       0.00000000
Si       1.36932111       1.34685720       1.35676144       0.00000000
Si      -1.29368664       1.37116188      -1.43633561       0.00000000
Si      -2.37902418      -0.20983149      -2.86864130       0.00000000
Si      -2.69607645       2.70060507      -0.01728055       0.00000000
Si       2.72411154      -0.14514390      -2.67591874       0.00000000
Si       2.71112841       2.70423774      -0.01675264       0.00000000
Si       0.00861741       2.70202230       2.71411249       0.00000000
Si      -2.70627399      -0.01225008       2.71328977       0.00000000
