10
Lattice="16.28999089631971 0.0 0.0 0.0 16.28999089631971 0.0 0.0 0.0 34.279985188174585" Properties=species:S:1:pos:R:3:initial_magmoms:R:1 pbc="T T T"
Si       1.36037790       1.35257499      -1.37061741       0.00000000
Si      -1.35834165      -1.35980775      -1.37178293       0.00000000
Si       1.33755561      -1.31522202       1.46190507       0.00000000
Si      -1.34501643       1.41946173       1.38981422       0.00000000
Si      -2.71552671      -2.70528030      -0.00952984       0.00000000
Si       2.72868903       2.69434971       0.01117528       0.00000000
Si       2.71220355      -2.71865439       0.02101364       0.00000000
Si      -2.72590344       2.71127502      -0.00630752       0.00000000
Si       0.00104256       2.71003698      -2.73043663       0.00000000
Si      -2.71363707      -0.00459378      -2.73105367       0.00000000
