10
Lattice="16.28999089631971 0.0 0.0 0.0 16.28999089631971 0.0 0.0 0.0 34.279985188174585" Properties=species:S:1:pos:R:3:initial_magmoms:R:1 pbc="T T T"
Si      -1.86996168      -0.71736273       1.36125897       0.00000000
Si      -1.54324944       1.30794039      -1.39259090       0.00000000
Si       1.29411018      -1.67086530      -1.29465292       0.00000000
Si       1.22979726      -0.68377275       2.46264123       0.00000000
Si      -2.32155306       2.33196237       0.71676061       0.00000000
Si      -0.88119126      -0.65042712       3.46420012       0.00000000
Si       1.05756309       2.74032009       2.26477705       0.00000000
Si       2.50774776      -0.18717210      -2.77308095       0.00000000
Si       1.28469456      -2.98729278       1.97062033       0.00000000
Si      -0.17482428       2.54751165      -2.84517180       0.00000000
