10
Lattice="16.28999089631971 0.0 0.0 0.0 16.28999089631971 0.0 0.0 0.0 34.279985188174585" Properties=species:S:1:pos:R:3:initial_magmoms:R:1 pbc="T T T"
Si      -1.11731481       1.21137327       1.65281079       0.00000000
Si       1.50532632      -1.42936605       1.22023103       0.00000000
Si      -1.10613987       0.36395118      -2.21438544       0.00000000
Si       1.97068275      -2.47603113      -1.02596625       0.00000000
Si       2.87147088      -0.47578203      -1.87408784       0.00000000
Si      -2.87002107       1.99086606       0.28620376       0.00000000
Si       2.36299482       1.82977425      -2.18418476       0.00000000
Si       0.37041831       1.77766254      -3.35467551       0.00000000
Si      -0.98922654      -1.63685178      -3.42056167       0.00000000
Si       0.24166215      -2.66186745       2.90380916       0.00000000
