10
Lattice="16.28999089631971 0.0 0.0 0.0 16.28999089631971 0.0 0.0 0.0 34.279985188174585" Properties=species:S:1:pos:R:3:initial_magmoms:R:1 pbc="T T T"
Si       1.75270626      -0.77949279       1.36660704       0.00000000
Si      -0.94794768       1.95750414       1.12315006       0.00000000
Si      -1.50288282      -1.93029984      -0.11134145       0.00000000
Si       1.76388120      -1.62691488      -2.50058920       0.00000000
Si       0.35163594      -2.07435231       2.76177682       0.00000000
Si       2.87002107      -1.99086606      -0.28620376       0.00000000
Si      -2.26509192       0.73681299       2.60619016       0.00000000
Si      -3.35042946      -0.84418038       1.17388447       0.00000000
Si      -0.13984965       3.09366648      -2.13252479       0.00000000
Si      -0.16053795      -0.59142474      -3.73696611       0.00000000
