10
Lattice="16.28999089631971 0.0 0.0 0.0 16.28999089631971 0.0 0.0 0.0 34.279985188174585" Properties=species:S:1:pos:R:3:initial_magmoms:R:1 pbc="T T T"
Si      -1.37521809       1.32638067      -1.38456938       0.00000000
Si       1.34434854      -1.41046965      -1.35090641       0.00000000
Si      -1.75661586      -0.92390364       1.34716989       0.00000000
Si       1.61963325       1.23841467       1.34233641       0.00000000
Si       0.12888648       2.46177738       2.61457021       0.00000000
Si      -0.68758461      -1.12195746       3.48528232       0.00000000
Si      -2.85685875       2.54371608      -0.02797248       0.00000000
Si      -0.02567304       2.67697485      -2.73331615       0.00000000
Si      -2.72935692      -2.68535763       0.02773252       0.00000000
Si       2.68698663      -0.03531672      -2.73324759       0.00000000
