10
Lattice="16.28999089631971 0.0 0.0 0.0 16.28999089631971 0.0 0.0 0.0 34.279985188174585" Properties=species:S:1:pos:R:3:initial_magmoms:R:1 pbc="T T T"
Si      -0.27697887       1.35552348       1.87336796       0.00000000
Si       2.31945165       0.20924505       0.18487206       0.00000000
Si      -0.69747264       0.80624097      -2.08254454       0.00000000
Si      -0.29766717      -2.32956774       0.26892663       0.00000000
Si       2.01950388       1.77903090       1.94857829       0.00000000
Si       0.21945888      -1.05559200      -3.23010197       0.00000000
Si      -2.89435833       1.54660518      -1.53001943       0.00000000
Si       0.28066041      -3.06359514      -1.93592897       0.00000000
Si       3.10331016      -1.95134652       0.36501349       0.00000000
Si       3.25239624       0.95281839      -1.81632603       0.00000000
