10
Lattice="16.28999089631971 0.0 0.0 0.0 16.28999089631971 0.0 0.0 0.0 34.279985188174585" Properties=species:S:1:pos:R:3:initial_magmoms:R:1 pbc="T T T"
Si       1.35795069       1.35714271      -1.35639121       0.00000000
Si       1.35741312      -1.35736213       1.35800237       0.00000000
Si      -1.35782037      -1.35751774      -1.35786525       0.00000000
Si      -1.35736425       1.35805495       1.35786525       0.00000000
Si      -2.71350675       0.00116962       2.71394794       0.00000000
Si      -0.00099369      -2.71500610       2.71302238       0.00000000
Si      -0.00175932      -2.71393096      -2.71470210       0.00000000
Si       2.71353933      -0.00084871       2.71521630       0.00000000
Si       0.00087966       2.71525630       2.71446214       0.00000000
Si       2.71485882      -2.71498981       0.00030852       0.00000000
