10
Lattice="16.28999089631971 0.0 0.0 0.0 16.28999089631971 0.0 0.0 0.0 34.279985188174585" Properties=species:S:1:pos:R:3:initial_magmoms:R:1 pbc="T T T"
Si       0.76017274       1.81086156      -1.56275684       0.00000000
Si       1.83590811      -1.69608941      -0.39192329       0.00000000
Si      -1.71242109      -0.61192668      -1.76072386       0.00000000
Si      -0.24063588       0.00198575       2.91880525       0.00000000
Si      -3.03094998      -2.15483210      -0.52431267       0.00000000
Si      -0.59515515      -2.07895328      -3.23455837       0.00000000
Si       0.76557673      -3.38477597      -1.77385310       0.00000000
Si       2.03192405       3.32296452      -0.14678698       0.00000000
Si       2.12074690       0.64374985      -3.21577293       0.00000000
Si      -0.54635031      -2.37269456       3.20082685       0.00000000
