10
Lattice="16.28999089631971 0.0 0.0 0.0 16.28999089631971 0.0 0.0 0.0 34.279985188174585" Properties=species:S:1:pos:R:3:initial_magmoms:R:1 pbc="T T T"
Si       1.92829617      -1.00937890      -0.96645616       0.00000000
Si      -0.17731665       2.38751127       0.10263433       0.00000000
Si      -0.06555096      -0.87753741       2.26714237       0.00000000
Si      -1.67229882      -0.06014268      -1.85927888       0.00000000
Si      -1.94836545       2.23578621      -1.37589653       0.00000000
Si      -3.68701344      -0.21136927      -0.45445002       0.00000000
Si       1.62258174      -3.38405921      -0.68443457       0.00000000
Si      -2.05864875      -0.03442077       3.28649258       0.00000000
Si      -0.51956955      -3.96396692       0.13365774       0.00000000
Si       3.96608950      -0.66595963       0.21771231       0.00000000
