10
Lattice="16.28999089631971 0.0 0.0 0.0 16.28999089631971 0.0 0.0 0.0 34.279985188174585" Properties=species:S:1:pos:R:3:initial_magmoms:R:1 pbc="T T T"
Si       1.58668414      -1.32838515      -1.19791475       0.00000000
Si      -0.25117551      -0.71612306       2.31143213       0.00000000
Si      -2.03957316      -0.56668023      -1.23990776       0.00000000
Si       0.60458706       2.42251359       0.04836909       0.00000000
Si      -1.51055541       3.26343597       0.78477214       0.00000000
Si       1.99206730      -0.35510245      -3.28933782       0.00000000
Si       1.63582292       0.13390543       3.50941544       0.00000000
Si      -3.17710386       1.69477413       1.47002943       0.00000000
Si      -2.29216590       0.26016270       3.15406892       0.00000000
Si      -2.28618747      -2.97743311      -1.12236162       0.00000000
