10
Lattice="16.28999089631971 0.0 0.0 0.0 16.28999089631971 0.0 0.0 0.0 34.279985188174585" Properties=species:S:1:pos:R:3:initial_magmoms:R:1 pbc="T T T"
Si       1.35593073       1.35728280      -1.35652833       0.00000000
Si      -1.35824391      -1.35720135      -1.35659689       0.00000000
Si      -1.35430173       1.35640314       1.36160177       0.00000000
Si       1.35738054      -1.35601218       1.36084761       0.00000000
Si       2.71406061      -0.00006516      -2.71439358       0.00000000
Si      -2.71438641      -2.71408667      -0.00051420       0.00000000
Si       2.71265967      -2.71610500       0.00075416       0.00000000
Si      -0.00104256       2.71477737      -2.71435930       0.00000000
Si       2.71396287       2.71533123       0.00003428       0.00000000
Si      -0.00087966      -2.71525630      -2.71446214       0.00000000
