10
Lattice="16.28999089631971 0.0 0.0 0.0 16.28999089631971 0.0 0.0 0.0 34.279985188174585" Properties=species:S:1:pos:R:3:initial_magmoms:R:1 pbc="T T T"
Si       1.27871075      -1.31040018      -1.58435324       0.00000000
Si       1.28410437       1.48085874       1.43907458       0.00000000
Si      -1.49307088      -1.47273003       1.30815925       0.00000000
Si      -1.41745270       1.39209453      -1.58404472       0.00000000
Si       2.55601128       2.65746915      -0.19834411       0.00000000
Si       2.57669958      -2.73175155      -0.14551862       0.00000000
Si      -2.64708706       2.72057661      -0.06876569       0.00000000
Si       2.75787696       0.11479563       2.68768946       0.00000000
Si       2.63402409       0.05408280      -2.96741430       0.00000000
Si      -0.08315968      -2.65802301      -2.96422626       0.00000000
