10
Lattice="16.28999089631971 0.0 0.0 0.0 16.28999089631971 0.0 0.0 0.0 34.279985188174585" Properties=species:S:1:pos:R:3:initial_magmoms:R:1 pbc="T T T"
Si       1.48527333       1.17926568      -1.51651311       0.00000000
Si       0.72674577      -2.06744535       1.20254255       0.00000000
Si      -1.40095629      -1.44003600      -1.58294776       0.00000000
Si       0.18267606       1.90022850       1.78927911       0.00000000
Si       2.91279861       2.55731823      -0.06465209       0.00000000
Si      -2.61459387      -2.92372920      -0.10451973       0.00000000
Si      -2.04175602       2.85804792       1.80251119       0.00000000
Si      -0.00982287       2.56953573      -3.03367754       0.00000000
Si       2.63928951      -3.01404096      -0.13958818       0.00000000
Si       2.71490769      -0.14921640      -3.03179214       0.00000000
