10
Lattice="16.28999089631971 0.0 0.0 0.0 16.28999089631971 0.0 0.0 0.0 34.279985188174585" Properties=species:S:1:pos:R:3:initial_magmoms:R:1 pbc="T T T"
Si       1.22963436      -1.32848208      -1.51527903       0.00000000
Si      -1.48527333      -1.17926568       1.51651311       0.00000000
Si       1.42752528       1.37805255       1.45186102       0.00000000
Si      -1.49509620       1.39027005      -1.51716443       0.00000000
Si      -1.30259727       0.72096282       3.30579222       0.00000000
Si       2.64708706      -2.72057661       0.06876569       0.00000000
Si       2.57671522       2.80921050      -0.07346205       0.00000000
Si       0.02849121       2.69143380       2.78086251       0.00000000
Si       2.56340678       0.05186736      -2.89905997       0.00000000
Si      -2.88622962      -2.61930168      -0.06643465       0.00000000
