10
Lattice="16.28999089631971 0.0 0.0 0.0 16.28999089631971 0.0 0.0 0.0 34.279985188174585" Properties=species:S:1:pos:R:3:initial_magmoms:R:1 pbc="T T T"
Si      -1.56888990       1.67668083       0.17678198       0.00000000
Si      -0.53787951      -1.84011840      -1.40572014       0.00000000
Si      -0.12629637      -1.00323594       2.15292139       0.00000000
Si       1.94932656       1.25216343      -0.68477737       0.00000000
Si       2.15637246      -1.28510181       2.35448782       0.00000000
Si      -0.69318837       2.82598920       2.06677574       0.00000000
Si      -1.80146223      -2.61477306       1.98326965       0.00000000
Si       1.58921982       1.76046030      -2.95922138       0.00000000
Si      -1.19900916      -3.66313230      -0.04254149       0.00000000
Si      -3.72612573       0.81757881       0.65299980       0.00000000
