10
Lattice="16.28999089631971 0.0 0.0 0.0 16.28999089631971 0.0 0.0 0.0 34.279985188174585" Properties=species:S:1:pos:R:3:initial_magmoms:R:1 pbc="T T T"
Si       1.35506345      -1.35480672       1.36050481       0.00000000
Si      -1.35773892      -1.35739683      -1.35642549       0.00000000
Si       1.35752868       1.35739683      -1.35690541       0.00000000
Si      -1.36080144       1.35874890       1.36005917       0.00000000
Si       2.71480736      -0.00016290      -2.71415362       0.00000000
Si      -0.00024435       2.71482624      -2.71425646       0.00000000
Si       2.71456138      -2.71466334       0.00092556       0.00000000
Si      -2.71534752       0.00006516      -2.71387938       0.00000000
Si       0.00009774      -2.71521720      -2.71470210       0.00000000
Si       2.71448156       2.71567332      -0.00003428       0.00000000
