10
Lattice="16.28999089631971 0.0 0.0 0.0 16.28999089631971 0.0 0.0 0.0 34.279985188174585" Properties=species:S:1:pos:R:3:initial_magmoms:R:1 pbc="T T T"
Si      -1.49074677       1.22336271       1.27223380       0.00000000
Si       1.31852889       1.54290541      -1.23641120       0.00000000
Si       1.24830270      -1.34772057       1.60478412       0.00000000
Si      -1.61963325      -1.23841467      -1.34233641       0.00000000
Si      -1.52552592      -0.30335238       3.06531799       0.00000000
Si       2.43579483       0.07587882      -2.71024570       0.00000000
Si       3.03094998       2.15483210       0.52431267       0.00000000
Si       2.64733677      -2.66110182       0.27578263       0.00000000
Si      -0.27528471      -2.64888432      -2.69324282       0.00000000
Si      -0.28219167       2.80484219      -2.67555434       0.00000000
