10
Lattice="16.28999089631971 0.0 0.0 0.0 16.28999089631971 0.0 0.0 0.0 34.279985188174585" Properties=species:S:1:pos:R:3:initial_magmoms:R:1 pbc="T T T"
Si      -0.36010674       0.50829687      -2.27444401       0.00000000
Si       1.91496022      -1.39924584       0.03109196       0.00000000
Si      -1.94932656      -1.25216343       0.68477737       0.00000000
Si       0.53331831       2.01877083       1.25197432       0.00000000
Si      -3.51821646       0.42451740       0.86155935       0.00000000
Si       3.67954352       0.12999420       0.23324115       0.00000000
Si      -0.38392272       1.53121113       3.35580675       0.00000000
Si       2.89231298       1.90988847       1.51644455       0.00000000
Si      -0.73146987      -1.49882661      -3.48905312       0.00000000
Si       1.60256363      -3.33308061       1.33225809       0.00000000
