10
Lattice="16.28999089631971 0.0 0.0 0.0 16.28999089631971 0.0 0.0 0.0 34.279985188174585" Properties=species:S:1:pos:R:3:initial_magmoms:R:1 pbc="T T T"
Si      -1.35393156       1.35606105      -1.35906505       0.00000000
Si      -1.35621216      -1.35782037       1.35721393       0.00000000
Si       1.35849746       1.35723393       1.35776241       0.00000000
Si       1.36097191      -1.36029645      -1.36215025       0.00000000
Si      -0.00149923       2.70879894      -2.71844548       0.00000000
Si      -2.71318545       2.71489140       0.00003428       0.00000000
Si      -2.71504251      -2.71435383       0.00044564       0.00000000
Si      -2.71404882       0.00000000       2.71549054       0.00000000
Si       0.00121878       2.71479366       2.71501062       0.00000000
Si       2.71482893       2.71562445       0.00099412       0.00000000
