10
Lattice="16.28999089631971 0.0 0.0 0.0 16.28999089631971 0.0 0.0 0.0 34.279985188174585" Properties=species:S:1:pos:R:3:initial_magmoms:R:1 pbc="T T T"
Si       1.47377259      -1.36606311       1.24861488       0.00000000
Si       1.27190691       1.17661041      -1.63741869       0.00000000
Si      -1.28410437      -1.48085874      -1.43907458       0.00000000
Si      -0.86143638       1.82734704       1.51061695       0.00000000
Si      -2.50366616       2.61777042      -0.05597925       0.00000000
Si       2.29534245       2.87485920      -0.30588048       0.00000000
Si       0.07667866      -2.57202810       2.79399175       0.00000000
Si       2.66791104      -2.83656141      -0.22919611       0.00000000
Si      -0.01078398       2.64546342      -3.03031810       0.00000000
Si      -2.70155708      -0.08876421      -3.02311930       0.00000000
