10
Lattice="16.28999089631971 0.0 0.0 0.0 16.28999089631971 0.0 0.0 0.0 34.279985188174585" Properties=species:S:1:pos:R:3:initial_magmoms:R:1 pbc="T T T"
Si      -1.86028542       1.34754138       0.46130602       0.00000000
Si       1.28640501       0.91460205       1.73172298       0.00000000
Si       0.78897357      -0.33159924      -2.19320040       0.00000000
Si      -0.08081469      -2.28916854       0.74295053       0.00000000
Si      -2.06053839       0.51917859       2.64024593       0.00000000
Si       0.12543300      -0.16073343       3.47962612       0.00000000
Si      -2.40584241      -2.55295251       0.44286338       0.00000000
Si       3.40900830       0.34191081       0.96542776       0.00000000
Si      -2.28830354      -2.36193597      -2.05601182       0.00000000
Si      -0.89120961      -1.15597098      -3.60138870       0.00000000
