10
Lattice="16.28999089631971 0.0 0.0 0.0 16.28999089631971 0.0 0.0 0.0 34.279985188174585" Properties=species:S:1:pos:R:3:initial_magmoms:R:1 pbc="T T T"
Si       1.35873913       1.35546972      -1.35769385       0.00000000
Si      -1.35691226      -1.35840251      -1.35680257       0.00000000
Si       1.35763141      -1.35778445       1.35676829       0.00000000
Si      -1.35744066       1.35714759       1.35783097       0.00000000
Si       2.71569613       0.00088781      -2.71195970       0.00000000
Si      -0.00006842      -2.71449622       2.71411934       0.00000000
Si       0.00084219      -2.71405639      -2.71480494       0.00000000
Si       2.71442551      -0.00119080       2.71473638       0.00000000
Si       0.00123315       2.71475619       2.71463354       0.00000000
Si      -2.71471288       2.71483764      -0.00034280       0.00000000
