10
Lattice="16.28999089631971 0.0 0.0 0.0 16.28999089631971 0.0 0.0 0.0 34.279985188174585" Properties=species:S:1:pos:R:3:initial_magmoms:R:1 pbc="T T T"
Si       1.23445750       1.02781755       1.80172416       0.00000000
Si       2.00680224      -0.97453296      -1.18687659       0.00000000
Si      -1.43075333      -1.59850512       1.48700287       0.00000000
Si      -1.64587907       1.60435323      -1.34891817       0.00000000
Si       2.62580595       2.25754965       0.37769709       0.00000000
Si       1.54353093       2.78542710      -1.99663885       0.00000000
Si      -2.05685948       0.15884379      -3.31535634       0.00000000
Si       3.80021721       0.52913178      -0.73424341       0.00000000
Si      -0.10953264       2.38273830       3.19236795       0.00000000
Si      -1.54838342      -2.14671249      -3.00525942       0.00000000
