10
Lattice="16.28999089631971 0.0 0.0 0.0 16.28999089631971 0.0 0.0 0.0 34.279985188174585" Properties=species:S:1:pos:R:3:initial_magmoms:R:1 pbc="T T T"
Si      -1.36073188       1.30582269      -1.46070527       0.00000000
Si      -1.14918994      -1.43115795       1.52532307       0.00000000
Si       1.34369223      -1.40346495      -1.44901578       0.00000000
Si       1.07033137       1.68868656       1.38192982       0.00000000
Si       1.86873522      -0.17917371       2.72406055       0.00000000
Si      -2.47799782       2.77284928       0.01312924       0.00000000
Si       2.74442046       2.61185715      -0.08463733       0.00000000
Si      -2.57671522      -2.80921050       0.07346205       0.00000000
Si      -2.54822401      -0.11777670       2.85432456       0.00000000
Si       0.49303984      -2.22158133       3.09191927       0.00000000
