10
Lattice="16.28999089631971 0.0 0.0 0.0 16.28999089631971 0.0 0.0 0.0 34.279985188174585" Properties=species:S:1:pos:R:3:initial_magmoms:R:1 pbc="T T T"
Si      -1.71528324       1.25519241       0.98781261       0.00000000
Si       0.27719064      -2.34269748      -0.10167449       0.00000000
Si       0.98052768       1.57753404      -1.46608723       0.00000000
Si       2.14363368       0.25268089       1.02761169       0.00000000
Si       2.71919196      -1.77150492      -0.12165974       0.00000000
Si      -0.87812874      -2.65416228      -2.16495367       0.00000000
Si       2.77956270       2.30466752       0.07620445       0.00000000
Si      -0.78141501       3.42238958       1.04074093       0.00000000
Si      -0.68085684      -3.05053056       1.93383789       0.00000000
Si      -2.12066641       0.28190971       3.07923567       0.00000000
