10
Lattice="10.86 0.0 0.0 0.0 10.86 0.0 0.0 0.0 10.86" Properties=species:S:1:pos:R:3:initial_magmoms:R:1 pbc="T T T"
Si      -1.25453634      -1.31176854       1.36628574       0.00000000
Si      -1.33832124       1.34445714      -1.38227166       0.00000000
Si       1.46046366      -1.31176854      -1.34871426       0.00000000
Si       1.46046366       1.40323146       1.36628574       0.00000000
Si       0.19311252       2.91213072      -2.25577404       0.00000000
Si      -2.48021766       2.73928296      -0.03550134       0.00000000
Si      -2.61203634      -2.66926854       0.00878574       0.00000000
Si      -2.61203634       0.04573146       2.72378574       0.00000000
Si       0.10296366      -2.66926854      -2.70621426       0.00000000
Si       0.10296366      -2.66926854       2.72378574       0.00000000
