10
Lattice="10.86 0.0 0.0 0.0 10.86 0.0 0.0 0.0 10.86" Properties=species:S:1:pos:R:3:initial_magmoms:R:1 pbc="T T T"
Si       1.46514432       1.09145172       1.47166032       0.00000000
Si      -1.40545776       1.27806996      -1.38043632       0.00000000
Si       1.30954224      -1.43693004      -1.38043632       0.00000000
Si      -1.40545776      -1.43693004       1.33456368       0.00000000
Si      -0.05078136       2.49911406       2.64503988       0.00000000
Si       2.56105950      -2.78137632      -0.05258412       0.00000000
Si      -0.04795776       2.63556996      -2.73793632       0.00000000
Si       2.71703082       2.67832578       0.07502088       0.00000000
Si      -2.76295776       2.63556996      -0.02293632       0.00000000
Si       2.66704224      -0.07943004      -2.73793632       0.00000000
