10
Lattice="10.86 0.0 0.0 0.0 10.86 0.0 0.0 0.0 10.86" Properties=species:S:1:pos:R:3:initial_magmoms:R:1 pbc="T T T"
Si      -1.35315600       1.39903950      -1.29550026       0.00000000
Si      -1.35315600      -1.31596050       1.41949974       0.00000000
Si       1.36184400       1.39903950       1.41949974       0.00000000
Si       0.09449286      -2.52206124      -2.20256004       0.00000000
Si       2.46251586      -2.59414992      -0.10526598       0.00000000
Si      -2.57883732      -2.69490900       0.01771266       0.00000000
Si       2.57688252       0.10477728      -2.75019726       0.00000000
Si       0.00434400       2.75653950      -2.65300026       0.00000000
Si      -2.71347960      -0.09491640      -2.70002406       0.00000000
Si       0.00434400      -2.67346050       2.77699974       0.00000000
