10
Lattice="16.290000149 0.0 0.0 0.0 16.290000149 0.0 0.0 0.0 29.1751946751" Properties=species:S:1:pos:R:3:initial_magmoms:R:1 pbc="T T T"
Si      -1.33146316      -1.36366686       1.37263456       0.00000000
Si       1.35581671       1.34845363       1.36601179       0.00000000
Si       1.35281935      -1.34905148      -1.37079652       0.00000000
Si      -1.36752922       1.34576578      -1.36218984       0.00000000
Si      -2.69351894      -2.70611111      -0.00487226       0.00000000
Si       2.71621091       2.69446376      -0.00347185       0.00000000
Si      -0.01032786       2.73328284       2.68408873       0.00000000
Si       2.72618039      -2.69667920      -0.03483518       0.00000000
Si      -2.75579562      -0.00100998       2.67081402       0.00000000
Si      -0.01601307       2.71044425      -2.71694000       0.00000000
