10
Lattice="16.290000149 0.0 0.0 0.0 16.290000149 0.0 0.0 0.0 29.1751946751" Properties=species:S:1:pos:R:3:initial_magmoms:R:1 pbc="T T T"
Si       1.32829964      -1.36111096       1.37403497       0.00000000
Si      -1.37043210      -1.36907677      -1.32469971       0.00000000
Si      -1.36556139       1.35184195       1.34879843       0.00000000
Si       1.36750967       1.36533007      -1.34410122       0.00000000
Si      -2.69578651       0.01449810      -2.68435131       0.00000000
Si       0.00928693      -2.71748968      -2.66547496       0.00000000
Si       2.68483312       0.00672777       2.71069651       0.00000000
Si      -0.02309433       2.71256195       2.70270251       0.00000000
Si       2.72604682       0.00988803      -2.69858881       0.00000000
Si       2.71226548      -2.71594539       0.03970744       0.00000000
