10
Lattice="16.290000149 0.0 0.0 0.0 16.290000149 0.0 0.0 0.0 29.1751946751" Properties=species:S:1:pos:R:3:initial_magmoms:R:1 pbc="T T T"
Si      -0.43624620       0.25389594      -2.27763072       0.00000000
Si       0.81223570       1.86256604       1.17083645       0.00000000
Si      -1.87611932      -0.80400925       1.18535694       0.00000000
Si       1.63688437      -1.73310941       0.07962873       0.00000000
Si       2.18755154       0.59740318       2.58647233       0.00000000
Si      -0.67064302      -2.20040435       2.62460139       0.00000000
Si      -0.46900539      -2.04415067      -2.94285433       0.00000000
Si      -2.16148754       1.88768522      -2.19722388       0.00000000
Si       1.73183879      -2.42861096      -2.14552544       0.00000000
Si       0.64524691      -3.52307254       1.22387987       0.00000000
