10
Lattice="16.290000149 0.0 0.0 0.0 16.290000149 0.0 0.0 0.0 29.1751946751" Properties=species:S:1:pos:R:3:initial_magmoms:R:1 pbc="T T T"
Si       1.34322454       1.35543716      -1.36636189       0.00000000
Si      -1.35698959      -1.36272856      -1.34984873       0.00000000
Si       1.38994426      -1.34847481       1.33298547       0.00000000
Si      -1.38396583       1.35483443       1.33432753       0.00000000
Si       0.02694366      -2.69997467       2.68175472       0.00000000
Si      -0.02743236       2.72267316       2.67098907       0.00000000
Si      -2.70297855      -0.00154429      -2.70518240       0.00000000
Si       2.70383051      -0.00175932      -2.70506570       0.00000000
Si       2.71593398       2.70340209      -0.02433211       0.00000000
Si       2.70997184      -2.71673708      -0.05067731       0.00000000
