10
Lattice="16.290000149 0.0 0.0 0.0 16.290000149 0.0 0.0 0.0 29.1751946751" Properties=species:S:1:pos:R:3:initial_magmoms:R:1 pbc="T T T"
Si      -1.35583300      -1.31613427       1.39754726       0.00000000
Si       1.34400646       1.36897903       1.36250785       0.00000000
Si      -1.37350765       1.35089713      -1.36195644       0.00000000
Si       1.42822576      -1.37502262      -1.29092943       0.00000000
Si      -2.67789683      -2.65649177       0.00399117       0.00000000
Si      -2.54896148      -0.11499111      -2.81193736       0.00000000
Si       2.68649795      -0.00918756      -2.71968539       0.00000000
Si       2.71120988       2.71819829       0.01113617       0.00000000
Si      -0.00299736      -2.68346801       2.75363948       0.00000000
Si       2.80354161      -2.64018548       0.12470645       0.00000000
