10
Lattice="16.290000149 0.0 0.0 0.0 16.290000149 0.0 0.0 0.0 29.1751946751" Properties=species:S:1:pos:R:3:initial_magmoms:R:1 pbc="T T T"
Si      -1.29942220      -1.29013869       1.47245457       0.00000000
Si      -1.44958342       1.38598579      -1.22490013       0.00000000
Si       1.36043998       1.39514077       1.31972243       0.00000000
Si       1.43247436      -1.30555229      -1.35393909       0.00000000
Si      -2.62366889      -2.62715169       0.13533498       0.00000000
Si      -0.12944181       2.70977636      -2.59350530       0.00000000
Si       0.08665205      -2.51958964      -2.83607983       0.00000000
Si       2.70972603      -2.67926519       0.03513569       0.00000000
Si       2.65484502       0.04220739       2.75120335       0.00000000
Si       0.01032965       2.72181467       2.72614186       0.00000000
