10
Lattice="16.290000149 0.0 0.0 0.0 16.290000149 0.0 0.0 0.0 29.1751946751" Properties=species:S:1:pos:R:3:initial_magmoms:R:1 pbc="T T T"
Si       1.34523147       1.32999706      -1.38116539       0.00000000
Si      -1.33118297      -1.36039420      -1.37849294       0.00000000
Si      -1.35468944       1.38828268       1.33021383       0.00000000
Si       1.36924293      -1.34889346       1.36402788       0.00000000
Si      -2.62628686      -2.67423158       0.09152259       0.00000000
Si       2.70797143       2.69661404      -0.01715501       0.00000000
Si      -2.69524243       0.03503979       2.71577300       0.00000000
Si      -0.03978833       2.67051746      -2.75367157       0.00000000
Si       0.00967789       2.71813313       2.70932528       0.00000000
Si       2.72944165       0.00524538       2.71775691       0.00000000
