10
Lattice="16.290000149 0.0 0.0 0.0 16.290000149 0.0 0.0 0.0 29.1751946751" Properties=species:S:1:pos:R:3:initial_magmoms:R:1 pbc="T T T"
Si      -0.93636550       1.04291839      -1.83097687       0.00000000
Si       1.06683211       1.76282237       1.06107266       0.00000000
Si       1.33594291      -1.54236979      -1.15796348       0.00000000
Si      -1.93403027      -1.02793159       0.91125803       0.00000000
H        0.50591853      -1.28296783       2.39385390       0.00000000
Si       0.68483161      -2.67040995       1.78333377       0.00000000
Si      -1.67589893      -1.01491588      -2.71335146       0.00000000
Si      -0.46284777      -2.87983419      -1.76174413       0.00000000
Si      -2.23635638       2.53956215      -0.50190087       0.00000000
Si      -1.21363759      -3.21776699       0.49554068       0.00000000
