10
Lattice="16.290000149 0.0 0.0 0.0 16.290000149 0.0 0.0 0.0 29.1751946751" Properties=species:S:1:pos:R:3:initial_magmoms:R:1 pbc="T T T"
Si      -1.46289414      -1.38627901       1.21599294       0.00000000
Si       1.33921720      -1.33014367      -1.41006633       0.00000000
Si      -1.34529826       1.34058556      -1.40192645       0.00000000
Si       1.40419801       1.40524057       1.30095111       0.00000000
Si      -0.11925909       2.67804344       2.51863621       0.00000000
Si      -0.04898403      -2.61346988       2.59624222       0.00000000
Si      -2.80251534      -0.07719831       2.63425750       0.00000000
Si       2.75695221       2.68351688      -0.07576798       0.00000000
Si      -0.00933417       2.70010010      -2.76507908       0.00000000
Si      -2.73390659       2.72994094      -0.11582552       0.00000000
