10
Lattice="16.290000149 0.0 0.0 0.0 16.290000149 0.0 0.0 0.0 29.1751946751" Properties=species:S:1:pos:R:3:initial_magmoms:R:1 pbc="T T T"
Si      -1.24563115       1.11037854      -1.60516086       0.00000000
Si      -1.89674246      -0.01766162       1.33613639       0.00000000
Si       1.56989989       1.69007448       0.44098307       0.00000000
Si       0.43606701      -2.28952368       0.29318153       0.00000000
H        1.79603768       0.56271362      -2.35575109       0.00000000
H       -2.07565553       1.36978050       1.94665651       0.00000000
Si      -1.06389991      -1.26147806       3.04880784       0.00000000
Si       2.05102505      -2.45636586      -1.38611350       0.00000000
Si       0.84027079       2.32248487       2.61923315       0.00000000
Si      -2.58157406       2.65274833      -0.44719738       0.00000000
