10
Lattice="16.290000149 0.0 0.0 0.0 16.290000149 0.0 0.0 0.0 29.1751946751" Properties=species:S:1:pos:R:3:initial_magmoms:R:1 pbc="T T T"
Si       1.24783030      -1.37290492       1.41089491       0.00000000
Si      -1.28907658       1.44847423       1.32647065       0.00000000
Si       1.90680968       0.78885955      -1.12417568       0.00000000
Si      -1.83974375      -0.88203835      -1.18037294       0.00000000
H        0.69515947      -1.83257615      -1.92293125       0.00000000
Si       1.25607304       1.21321405      -3.25571249       0.00000000
Si       2.66717801       0.05694984       2.64514569       0.00000000
Si      -2.71782362       0.05629824       2.60482557       0.00000000
Si       2.74484874      -2.60846885       0.13013887       0.00000000
Si      -3.47662812       0.85107106      -1.26000168       0.00000000
