10
Lattice="16.290000149 0.0 0.0 0.0 16.290000149 0.0 0.0 0.0 29.1751946751" Properties=species:S:1:pos:R:3:initial_magmoms:R:1 pbc="T T T"
Si      -2.06301449       0.72487894      -0.85039857       0.00000000
Si      -0.79076548      -1.50941512       1.69989272       0.00000000
Si       1.03830832      -0.68631400      -2.07348109       0.00000000
Si       0.95413789       2.06542541       0.83791159       0.00000000
H       -1.41682276       2.26546661       1.79412860       0.00000000
Si      -1.32823774       1.33089301      -3.01222215       0.00000000
Si      -2.64689696       2.24984450       0.89745816       0.00000000
H        0.37958958      -3.60802326      -0.54260027       0.00000000
Si      -2.33263028      -2.82173754       0.50925302       0.00000000
Si      -3.36015951      -1.26428320      -0.96753698       0.00000000
