10
Lattice="16.290000149 0.0 0.0 0.0 16.290000149 0.0 0.0 0.0 29.1751946751" Properties=species:S:1:pos:R:3:initial_magmoms:R:1 pbc="T T T"
Si       1.41763726      -1.34327162       1.25269242       0.00000000
Si      -1.49701843       1.23556393       1.28075604       0.00000000
Si      -1.03793365      -1.85536586      -0.95091879       0.00000000
Si       0.86623705       1.72859708      -1.38049348       0.00000000
H       -2.04968927       0.77589271      -2.05307012       0.00000000
Si      -1.87077620      -0.61154941      -2.66359024       0.00000000
Si      -0.07767072       2.66541869       2.51500681       0.00000000
Si       2.64945449      -2.54342288      -0.34478953       0.00000000
Si      -0.04354317      -2.77949757       2.46756795       0.00000000
Si      -0.83803906       3.39732840      -1.25431456       0.00000000
