10
Lattice="16.290000149 0.0 0.0 0.0 16.290000149 0.0 0.0 0.0 29.1751946751" Properties=species:S:1:pos:R:3:initial_magmoms:R:1 pbc="T T T"
Si      -1.35889552      -1.36541152      -1.33068063       0.00000000
Si      -1.34763913       1.34807896       1.36583674       0.00000000
Si       1.33674112      -1.37539729       1.35250367       0.00000000
Si       1.33823980       1.35638686      -1.38138712       0.00000000
Si      -2.70330923       2.67779909      -0.02153129       0.00000000
Si       2.67920818      -0.01467729       2.70640776       0.00000000
Si       0.00651600      -2.71274114      -2.68064606       0.00000000
Si      -2.68785002       0.00140094      -2.70652446       0.00000000
Si       2.69071869       2.70844058      -0.02059769       0.00000000
Si      -2.70143588      -0.02630835       2.70847920       0.00000000
