10
Lattice="16.290000149 0.0 0.0 0.0 16.290000149 0.0 0.0 0.0 29.1751946751" Properties=species:S:1:pos:R:3:initial_magmoms:R:1 pbc="T T T"
Si      -1.34677576       1.35946567      -1.30871171       0.00000000
Si       1.39105198       1.35076681       1.29053556       0.00000000
Si       1.36549297      -1.34644996      -1.33356897       0.00000000
Si      -1.33944526      -1.31888728       1.39477853       0.00000000
H       -0.39089484      -2.21833964       2.15628029       0.00000000
Si       2.63021600      -0.17925516       2.52169960       0.00000000
Si      -2.65432520      -0.07110585      -2.63373235       0.00000000
Si      -2.54668088       2.75204892       0.17455519       0.00000000
Si       2.60952770      -2.73922869       0.03343477       0.00000000
Si       0.02652012       2.61232958      -2.73995923       0.00000000
