10
Lattice="16.290000149 0.0 0.0 0.0 16.290000149 0.0 0.0 0.0 29.1751946751" Properties=species:S:1:pos:R:3:initial_magmoms:R:1 pbc="T T T"
Si       1.35334063       1.39841506      -1.31923812       0.00000000
Si      -1.35172792       1.36956547       1.35816366       0.00000000
Si       1.37652130      -1.34687350       1.35965160       0.00000000
Si      -1.36273996      -1.36661698      -1.36401037       0.00000000
Si       2.73618246       0.04341285      -2.64320845       0.00000000
Si      -2.70797143      -2.69661404       0.01715501       0.00000000
Si       2.69070077       2.72253143       0.08516239       0.00000000
Si      -2.69829354       0.02151909       2.72648029       0.00000000
Si       0.02147022      -2.69136866       2.73491192       0.00000000
Si      -2.71721438       2.71777475      -0.01406244       0.00000000
