10
Lattice="16.290000149 0.0 0.0 0.0 16.290000149 0.0 0.0 0.0 29.1751946751" Properties=species:S:1:pos:R:3:initial_magmoms:R:1 pbc="T T T"
H        1.23007420       0.01562211       0.89667043       0.00000000
Si      -1.38898152      -1.39071967       1.32980537       0.00000000
Si       0.58388248      -1.52496556      -1.74785674       0.00000000
Si      -0.80659121       2.24249771       0.21484613       0.00000000
Si       0.71636905       2.05941440      -1.54561429       0.00000000
H       -0.88922224       1.00123228      -2.47493176       0.00000000
Si       0.44434233      -2.57614949       2.26764201       0.00000000
H       -3.11714040       0.91880488      -1.45199109       0.00000000
Si       2.64689696      -2.24984450      -0.89745816       0.00000000
Si       3.60103485      -0.18441909      -0.05954657       0.00000000
