10
Lattice="16.290000149 0.0 0.0 0.0 16.290000149 0.0 0.0 0.0 29.1751946751" Properties=species:S:1:pos:R:3:initial_magmoms:R:1 pbc="T T T"
Si      -1.28699146      -1.43859044       1.28049929       0.00000000
Si       1.30495933      -1.41200516      -1.33978329       0.00000000
Si      -1.43205391       1.62708985      -0.93068871       0.00000000
Si       1.19008225       1.16668883       1.68273770       0.00000000
Si      -0.80495407       2.03953636       2.66734217       0.00000000
Si      -2.31697559       0.18574086       2.59580460       0.00000000
Si       2.55283850       2.56316213       0.22313189       0.00000000
Si       0.24767316      -2.42618799       2.78497656       0.00000000
Si      -0.11754864       2.63848709      -2.59743841       0.00000000
Si       1.77241718      -0.56774332       3.20962152       0.00000000
