10
Lattice="16.290000149 0.0 0.0 0.0 16.290000149 0.0 0.0 0.0 29.1751946751" Properties=species:S:1:pos:R:3:initial_magmoms:R:1 pbc="T T T"
Si      -1.41872869       1.37500633      -1.25158668       0.00000000
Si      -1.30414483      -1.23856129       1.49881728       0.00000000
Si       1.18314271      -1.44842536      -1.41502612       0.00000000
Si       1.85518667       0.93325411       1.10538978       0.00000000
Si       3.45791091      -0.84233962       1.00963679       0.00000000
Si       2.57510693      -2.73250092      -0.05441174       0.00000000
Si      -0.04339656       2.69366555      -2.61844455       0.00000000
Si       2.56787417      -0.11378565      -2.75585971       0.00000000
Si      -2.77475718      -0.00946449      -2.60155211       0.00000000
Si       0.12988017      -2.59812470       2.78669789       0.00000000
