10
Lattice="16.290000149 0.0 0.0 0.0 16.290000149 0.0 0.0 0.0 29.1751946751" Properties=species:S:1:pos:R:3:initial_magmoms:R:1 pbc="T T T"
Si       0.84839950      -1.87649399      -1.11665140       0.00000000
Si       1.48789603       1.25112088       1.37598971       0.00000000
Si      -1.38556225       1.32030451      -1.43095577       0.00000000
Si      -1.31237128      -1.36370107       1.48822668       0.00000000
H        1.37860642      -1.61179777      -2.50258985       0.00000000
H        2.66310551       0.13522329      -2.07307263       0.00000000
Si       0.00560376       2.54850846       2.71699835       0.00000000
Si      -2.79735141       2.50341464       0.03425168       0.00000000
H       -0.21520719      -0.77830363      -3.67344876       0.00000000
Si       2.53980650      -2.80427466       0.19553215       0.00000000
