10
Lattice="16.290000149 0.0 0.0 0.0 16.290000149 0.0 0.0 0.0 29.1751946751" Properties=species:S:1:pos:R:3:initial_magmoms:R:1 pbc="T T T"
Si       1.33118297       1.36039420       1.37849294       0.00000000
Si      -1.29510388      -1.31383738       1.47001552       0.00000000
Si      -1.38756592       1.36143676      -1.35556415       0.00000000
Si       1.39914974      -1.34990344      -1.37013133       0.00000000
Si      -0.10578726      -2.73533538      -2.53846921       0.00000000
Si       0.07008821       2.54195678      -2.77267046       0.00000000
Si      -2.68472234      -2.65896785       0.19478527       0.00000000
Si       2.67641444       2.69039126      -0.00267245       0.00000000
Si       2.70042590       0.01150074       2.74252081       0.00000000
Si       2.75698479      -2.68835501       0.01329514       0.00000000
