10
Lattice="16.290000149 0.0 0.0 0.0 16.290000149 0.0 0.0 0.0 29.1751946751" Properties=species:S:1:pos:R:3:initial_magmoms:R:1 pbc="T T T"
Si      -1.35431152       1.41024160      -1.31480932       0.00000000
Si       1.17545383       1.46588824       1.44998092       0.00000000
Si      -1.48677039      -1.20304909       1.43250206       0.00000000
Si       1.00346401      -1.23491233      -1.84705240       0.00000000
Si      -2.46612846      -0.29660832      -2.55776014       0.00000000
Si      -1.05404446      -2.25109883      -2.57065558       0.00000000
Si       2.39594951       0.51090327      -2.74439386       0.00000000
Si      -0.12893535      -2.54150066       2.81592852       0.00000000
Si       2.54896148       0.11499111       2.81193736       0.00000000
Si       2.47459763       2.95332816       0.17901316       0.00000000
