10
Lattice="16.290000149 0.0 0.0 0.0 16.290000149 0.0 0.0 0.0 29.1751946751" Properties=species:S:1:pos:R:3:initial_magmoms:R:1 pbc="T T T"
H        1.31439124      -0.45584307       0.60372230       0.00000000
Si      -1.25750656       0.24338889       1.93802066       0.00000000
Si       0.26547813       2.03038562      -1.19586205       0.00000000
Si      -0.97057450      -1.99242992      -0.88310397       0.00000000
H        1.88682185      -0.58531600      -1.72474998       0.00000000
Si       3.07362981      -1.09395496      -0.92488285       0.00000000
H       -0.89158429      -2.82051579       1.69105263       0.00000000
Si      -1.92883376       2.75419920      -0.72900059       0.00000000
Si      -3.32058621      -0.44678583       1.03516508       0.00000000
H        1.07574274       0.16742862      -3.37898352       0.00000000
