10
Lattice="16.290000149 0.0 0.0 0.0 16.290000149 0.0 0.0 0.0 29.1751946751" Properties=species:S:1:pos:R:3:initial_magmoms:R:1 pbc="T T T"
Si      -1.35410626      -1.35376417       1.33645732       0.00000000
Si      -1.37336104       1.34762773      -1.33596134       0.00000000
Si       1.30605076       1.31435866       1.44463894       0.00000000
Si       1.35378046      -1.38447082      -1.33636979       0.00000000
Si       0.04132773      -2.80368822       2.53016041       0.00000000
Si       2.67465512       2.67431303       0.07031222       0.00000000
Si      -0.00837306       2.69549003      -2.68499317       0.00000000
Si       2.71399547      -0.02041137      -2.67778689       0.00000000
Si      -2.72321561      -0.02243133      -2.68653945       0.00000000
Si      -2.72618039       2.69667920       0.03483518       0.00000000
