10
Lattice="16.290000149 0.0 0.0 0.0 16.290000149 0.0 0.0 0.0 29.1751946751" Properties=species:S:1:pos:R:3:initial_magmoms:R:1 pbc="T T T"
Si      -1.30605076      -1.31435866      -1.44463894       0.00000000
Si      -1.33247314       1.39305565       1.35734676       0.00000000
Si       1.26060166      -1.39549915       1.42707547       0.00000000
Si       1.36860436       1.35995437      -1.37432672       0.00000000
Si      -2.66015702      -2.66812283      -0.10818162       0.00000000
Si       2.66002670       0.02041789       2.68003338       0.00000000
Si       2.69340491      -2.67660992       0.01919728       0.00000000
Si      -2.67641444       2.73077417      -0.04379197       0.00000000
Si       0.06199974       2.76965841       2.66118621       0.00000000
Si      -2.67941180       0.03326907      -2.78060028       0.00000000
