10
Lattice="16.290000149 0.0 0.0 0.0 16.290000149 0.0 0.0 0.0 29.1751946751" Properties=species:S:1:pos:R:3:initial_magmoms:R:1 pbc="T T T"
Si       1.28699146       1.43859044      -1.28049929       0.00000000
Si      -1.02998413       1.62433130       1.31530530       0.00000000
Si       1.53466462      -0.98759755       1.50447726       0.00000000
Si      -1.57578058      -1.30924360      -1.20677358       0.00000000
Si      -1.54831564       0.36518922       3.24492350       0.00000000
Si       2.47707371       2.60527927       0.40223841       0.00000000
Si       2.59195079       0.02658528      -2.62028258       0.00000000
H        0.66940498      -2.26408196      -2.83968005       0.00000000
Si       3.05940864       0.87084712       1.92912222       0.00000000
Si       2.53008137      -2.75770155       0.23944082       0.00000000
