10
Lattice="16.290000149 0.0 0.0 0.0 16.290000149 0.0 0.0 0.0 29.1751946751" Properties=species:S:1:pos:R:3:initial_magmoms:R:1 pbc="T T T"
Si      -1.33555521      -1.37681452      -1.34448050       0.00000000
Si       1.34313658      -1.35754345       1.36385283       0.00000000
Si       1.33088650       1.35798328      -1.38313763       0.00000000
Si      -1.38843581       1.36075258       1.32286168       0.00000000
Si      -2.66464329       0.03264516      -2.65564292       0.00000000
Si      -0.03595692       2.71280630       2.68365111       0.00000000
Si       2.69108522       2.71212212      -0.02940860       0.00000000
Si       2.69115038       0.00431685       2.71440176       0.00000000
Si       2.70167372      -2.71298549       0.00936524       0.00000000
Si       2.70950921      -0.00151497      -2.71880722       0.00000000
