10
Lattice="16.290000149 0.0 0.0 0.0 16.290000149 0.0 0.0 0.0 29.1751946751" Properties=species:S:1:pos:R:3:initial_magmoms:R:1 pbc="T T T"
Si       1.35410626       1.35376417      -1.33645732       0.00000000
Si       1.39543399      -1.44992404       1.19370309       0.00000000
Si      -1.37684710      -1.36599796      -1.33619474       0.00000000
Si      -1.30508965       1.34457661       1.43232701       0.00000000
Si      -0.01956429      -2.77638618       2.43210258       0.00000000
Si       2.66015702       2.66812283       0.10818162       0.00000000
Si      -0.01925478       2.70139190      -2.67241866       0.00000000
Si       2.70788672      -0.03070665      -2.67282711       0.00000000
Si      -2.70353729       2.68677651       0.07101242       0.00000000
Si      -2.64891692      -0.03308499       2.74693210       0.00000000
