10
Lattice="16.290000149 0.0 0.0 0.0 16.290000149 0.0 0.0 0.0 29.1751946751" Properties=species:S:1:pos:R:3:initial_magmoms:R:1 pbc="T T T"
Si       0.17891307      -1.38744212      -0.61052012       0.00000000
Si      -0.69515947       1.83257615       1.92293125       0.00000000
Si      -0.50591853       1.28296783      -2.39385390       0.00000000
Si      -2.53490321       0.95053780       0.74255830       0.00000000
Si      -2.43994880       0.25503624      -1.48259587       0.00000000
Si       1.21165021       2.62143569       0.79875556       0.00000000
Si       2.04968927      -0.77589271       2.05307012       0.00000000
Si       1.01175562      -2.63125856       1.10215133       0.00000000
Si       2.91592632       0.95270437       0.67257664       0.00000000
Si       2.07565553      -1.36978050      -1.94665651       0.00000000
