10
Lattice="16.290000149 0.0 0.0 0.0 16.290000149 0.0 0.0 0.0 29.1751946751" Properties=species:S:1:pos:R:3:initial_magmoms:R:1 pbc="T T T"
Si      -1.36870210       1.34838847      -1.34135875       0.00000000
Si      -1.37468053      -1.34201908       1.34310926       0.00000000
Si       1.35563752      -1.35234694      -1.36569086       0.00000000
Si       1.35749458       1.36288657       1.35720088       0.00000000
Si       0.01124010       2.69216687      -2.67612391       0.00000000
Si      -0.01254330      -2.73619875       2.64794067       0.00000000
Si       2.71842635      -2.69215058      -0.00201309       0.00000000
Si      -2.72723924       0.02759526       2.69383325       0.00000000
Si       2.71114472       0.01839141      -2.71177599       0.00000000
Si      -2.72927549      -2.69544116      -0.01718419       0.00000000
