10
Lattice="16.290000149 0.0 0.0 0.0 16.290000149 0.0 0.0 0.0 29.1751946751" Properties=species:S:1:pos:R:3:initial_magmoms:R:1 pbc="T T T"
Si      -1.15663888       0.15514596      -2.02213274       0.00000000
Si       0.23099546       1.85696228       1.43165598       0.00000000
Si       2.31267503      -0.18585261      -0.59896675       0.00000000
Si      -1.15587325      -2.06480639       0.59114779       0.00000000
H       -2.71736750       0.59078944       0.00353020       0.00000000
H       -2.19414899      -0.94832236      -1.81011660       0.00000000
Si      -3.16588008      -0.69372595       0.66796608       0.00000000
Si       1.66482173       0.67088737       2.88008769       0.00000000
Si       1.88299370      -2.02321802      -2.05463391       0.00000000
Si       0.33313376      -0.93434554      -3.43584598       0.00000000
