10
Lattice="16.290000149 0.0 0.0 0.0 16.290000149 0.0 0.0 0.0 29.1751946751" Properties=species:S:1:pos:R:3:initial_magmoms:R:1 pbc="T T T"
Si       1.36720342       1.34921926      -1.35137168       0.00000000
Si      -1.34400646      -1.36897903      -1.36250785       0.00000000
Si       1.35115777      -1.31924566       1.40767397       0.00000000
Si      -1.36321237       1.37301895       1.34917770       0.00000000
Si       2.67180437       2.64401363       0.12419880       0.00000000
Si      -2.69983946      -2.68511330       0.03503941       0.00000000
Si       0.08421930      -2.74400166      -2.65343728       0.00000000
Si      -0.00355122       2.76330531      -2.65368235       0.00000000
Si       2.77118967      -2.64930788       0.10681039       0.00000000
Si      -2.71751411      -0.01808190      -2.72446429       0.00000000
