10
Lattice="16.290000149 0.0 0.0 0.0 16.290000149 0.0 0.0 0.0 29.1751946751" Properties=species:S:1:pos:R:3:initial_magmoms:R:1 pbc="T T T"
Si       1.41872869      -1.37500633       1.25158668       0.00000000
Si       1.37533213       1.31865922      -1.36685787       0.00000000
Si      -1.33921720       1.33014367       1.41006633       0.00000000
Si      -1.35602848      -1.38447082      -1.34996543       0.00000000
Si      -2.68451546       2.67072923       0.00813988       0.00000000
Si       0.11458386      -2.61356762       2.75040395       0.00000000
Si       0.00369783       2.67024053      -2.71504362       0.00000000
Si       2.78337459       2.64432314      -0.01038637       0.00000000
Si      -2.80211134      -0.05613534       2.62605927       0.00000000
Si       2.60187140      -2.82343170      -0.16343944       0.00000000
