10
Lattice="16.290000149 0.0 0.0 0.0 16.290000149 0.0 0.0 0.0 29.1751946751" Properties=species:S:1:pos:R:3:initial_magmoms:R:1 pbc="T T T"
Si      -0.96430285       1.85637584      -0.91222081       0.00000000
Si      -1.76243141      -1.48530592       0.33586484       0.00000000
Si       0.37165635       0.64361791       2.22665086       0.00000000
Si       1.75317869      -0.97332751      -1.26602840       0.00000000
H       -0.39364785      -1.22258080      -2.57654897       0.00000000
Si       1.86743675      -1.22087035       2.57628639       0.00000000
Si       2.48383406      -2.29438136       0.52634969       0.00000000
Si      -2.46140273       0.84711259      -2.37623208       0.00000000
Si      -3.57223413      -0.60499432      -0.82845883       0.00000000
Si      -1.08458821      -3.53655577      -0.43436030       0.00000000
