10
Lattice="16.290000149 0.0 0.0 0.0 16.290000149 0.0 0.0 0.0 29.1751946751" Properties=species:S:1:pos:R:3:initial_magmoms:R:1 pbc="T T T"
Si      -1.44785521       1.24783030       1.34894430       0.00000000
Si      -1.41126787      -1.29635821      -1.36525323       0.00000000
Si       1.35193448       1.35345466      -1.38506319       0.00000000
Si       1.25911927      -1.37168317       1.45531706       0.00000000
Si      -2.82932868      -0.57425509       2.10714926       0.00000000
Si      -2.72577314      -2.30775545       0.30149646       0.00000000
H        1.44216284       1.31698135       3.01309741       0.00000000
Si       2.48652191       0.29942649       2.62285000       0.00000000
Si       2.54819748      -2.66458953      -0.06552749       0.00000000
Si       2.62118646      -0.01728369      -2.79915570       0.00000000
