10
Lattice="16.290000149 0.0 0.0 0.0 16.290000149 0.0 0.0 0.0 29.1751946751" Properties=species:S:1:pos:R:3:initial_magmoms:R:1 pbc="T T T"
Si      -0.26641155       0.82917730       2.15336277       0.00000000
Si       1.64739143      -1.66229678       0.09382743       0.00000000
Si      -1.76728583      -1.01358010      -1.15595039       0.00000000
Si       0.91597042       1.74166166      -1.27157168       0.00000000
Si      -0.42766463      -2.32266080      -2.57421495       0.00000000
Si      -2.53651592       1.31619943       2.03021427       0.00000000
Si       2.43942752       0.46885878      -2.48925678       0.00000000
Si       3.47661183      -0.36528696      -0.54014955       0.00000000
Si       2.11522394      -2.08832915       2.30466533       0.00000000
Si       1.03073347       2.81833944       2.27050118       0.00000000
