10
Lattice="16.290000149 0.0 0.0 0.0 16.290000149 0.0 0.0 0.0 29.1751946751" Properties=species:S:1:pos:R:3:initial_magmoms:R:1 pbc="T T T"
Si       1.33146316       1.36366686      -1.37263456       0.00000000
Si      -1.36205578      -1.34244425      -1.37750682       0.00000000
Si      -1.42433245       1.36265688       1.29817946       0.00000000
Si       1.39844764      -1.34219990       1.36131458       0.00000000
Si       2.70353729      -2.68677651      -0.07101242       0.00000000
Si       0.05462037      -2.71986150       2.67591968       0.00000000
Si       2.68727987       2.71212050      -0.00662277       0.00000000
Si       2.62813088       0.09086399       2.78672707       0.00000000
Si      -2.72505638      -2.69394411      -0.02873757       0.00000000
Si      -0.13704777       2.80011908       2.61666486       0.00000000
