10
Lattice="16.290000149 0.0 0.0 0.0 16.290000149 0.0 0.0 0.0 29.1751946751" Properties=species:S:1:pos:R:3:initial_magmoms:R:1 pbc="T T T"
Si      -1.34650372       1.33768594      -1.37514363       0.00000000
Si       1.30873861       1.46152252       1.29403658       0.00000000
Si      -1.41949269      -1.30961990       1.35848459       0.00000000
Si       1.41902191      -1.35335204      -1.33307300       0.00000000
H        2.25728903       0.56207017       2.05553834       0.00000000
H        0.19533339       0.28398357       3.53340783       0.00000000
Si      -0.03650589      -2.72215676       2.56403281       0.00000000
Si      -2.65115339      -2.67025927      -0.07042892       0.00000000
Si      -2.61575570       2.70842429       0.03894888       0.00000000
Si       0.07341903      -2.70010010      -2.71968247       0.00000000
