10
Lattice="16.290000149 0.0 0.0 0.0 16.290000149 0.0 0.0 0.0 29.1751946751" Properties=species:S:1:pos:R:3:initial_magmoms:R:1 pbc="T T T"
Si      -1.33049391       1.35907471      -1.36399870       0.00000000
Si       1.30754944       1.43057152       1.32502064       0.00000000
Si      -1.34036239      -1.37161801       1.35933067       0.00000000
Si       1.37743354      -1.34675947      -1.35600470       0.00000000
Si       2.65432520       0.07110585       2.63373235       0.00000000
Si      -2.65017125       2.69918786       0.03959074       0.00000000
Si       2.68084532       2.68343543      -0.10622688       0.00000000
Si      -2.60961437      -0.00087966       2.77342318       0.00000000
Si      -2.67296096      -0.00164529      -2.71790279       0.00000000
Si       0.02090007      -2.71459820      -2.69266624       0.00000000
