10
Lattice="16.290000149 0.0 0.0 0.0 16.290000149 0.0 0.0 0.0 29.1751946751" Properties=species:S:1:pos:R:3:initial_magmoms:R:1 pbc="T T T"
Si       1.46440111      -1.30586424       1.26334428       0.00000000
Si      -1.39942504      -1.41591704      -1.25295791       0.00000000
Si      -1.26340354       1.42300645       1.39253204       0.00000000
Si       1.38665368       1.34212660      -1.37292631       0.00000000
Si       0.15910443      -2.62748580       2.65018716       0.00000000
Si      -2.66002670      -0.02041789      -2.68003338       0.00000000
Si      -2.59802696       2.74924052      -0.01884718       0.00000000
Si       0.03337821      -2.69702781      -2.66083610       0.00000000
Si       2.69606181       0.05477513       2.69225779       0.00000000
Si       0.08254143       2.72351861      -2.74614437       0.00000000
