10
Lattice="16.290000149 0.0 0.0 0.0 16.290000149 0.0 0.0 0.0 29.1751946751" Properties=species:S:1:pos:R:3:initial_magmoms:R:1 pbc="T T T"
Si       0.96430285      -1.85637584       0.91222081       0.00000000
Si      -1.49709988      -1.00926325      -1.46401127       0.00000000
Si      -1.61117875       0.78993469       1.49980923       0.00000000
Si       1.64841770       1.53461575      -0.72666657       0.00000000
H        0.88998787       2.08772642       1.77779049       0.00000000
H        0.23325651       2.50097114       1.73186873       0.00000000
H       -0.94771963       0.84747097       2.85453022       0.00000000
Si      -1.97511365       2.74393650       0.14963957       0.00000000
Si       0.15426630       3.32905701      -0.84228787       0.00000000
H        0.57065500      -3.07895664      -1.66432816       0.00000000
