10
Lattice="16.290000149 0.0 0.0 0.0 16.290000149 0.0 0.0 0.0 29.1751946751" Properties=species:S:1:pos:R:3:initial_magmoms:R:1 pbc="T T T"
H        0.64281970      -0.83802277       1.08388766       0.00000000
Si      -1.42493518       1.23167062       1.28420454       0.00000000
Si      -1.44562348      -1.32830290      -1.20406028       0.00000000
Si       1.49599216       1.36684504      -1.15985986       0.00000000
Si       0.07216470       2.24093387       2.74821581       0.00000000
Si       0.07552044      -2.64477926      -2.40100182       0.00000000
Si       1.05705811      -3.50595664      -0.41309158       0.00000000
Si       0.15138297       2.71381628      -2.53824194       0.00000000
Si      -2.68965821       0.06447582      -2.57106403       0.00000000
Si       2.78964624      -0.58876948       2.39440823       0.00000000
