10
Lattice="16.290000149 0.0 0.0 0.0 16.290000149 0.0 0.0 0.0 29.1751946751" Properties=species:S:1:pos:R:3:initial_magmoms:R:1 pbc="T T T"
Si      -0.09495441       0.69550156       2.22515417       0.00000000
Si       0.72039268      -2.18983540      -0.41571735       0.00000000
Si      -2.20084418       0.38446029      -0.79732890       0.00000000
Si       1.93403027       1.02793159      -0.91125803       0.00000000
H        2.43994880      -0.25503624       1.48259587       0.00000000
Si       2.61886187      -1.64247836       0.87207574       0.00000000
Si      -2.16808499       2.68250690      -0.13210528       0.00000000
Si       1.47118249      -1.85190260      -2.67300216       0.00000000
Si       0.99766477       2.07084998      -2.74223490       0.00000000
Si       0.25813134       0.01301571      -3.62460949       0.00000000
