10
Lattice="16.290000149 0.0 0.0 0.0 16.290000149 0.0 0.0 0.0 29.1751946751" Properties=species:S:1:pos:R:3:initial_magmoms:R:1 pbc="T T T"
H        1.07611741      -1.71233966      -0.78905598       0.00000000
Si      -0.24557175       0.51297210      -2.30009766       0.00000000
Si       1.94184947       0.85296070       1.06165791       0.00000000
Si      -1.74553868       1.54101772       0.45552865       0.00000000
Si      -0.83522089      -1.99689338       1.09251651       0.00000000
Si       0.71003224       2.05311196       2.65913986       0.00000000
Si      -2.17337924      -0.84318670       2.64953830       0.00000000
Si       1.97956082      -2.45226404      -1.76648335       0.00000000
Si      -2.14467626      -0.78793102      -2.93066114       0.00000000
Si      -0.70760503       3.39638358       1.40644744       0.00000000
