10
Lattice="16.290000149 0.0 0.0 0.0 16.290000149 0.0 0.0 0.0 29.1751946751" Properties=species:S:1:pos:R:3:initial_magmoms:R:1 pbc="T T T"
Si      -1.36300060      -1.35149986       1.34876925       0.00000000
Si      -1.38994426       1.34847481      -1.33298547       0.00000000
Si       1.32002758      -1.36826227      -1.38366278       0.00000000
Si       1.36205578       1.34244425       1.37750682       0.00000000
Si      -0.06227667       2.70510113       2.67568628       0.00000000
Si       2.68874597      -2.71033022      -0.02970035       0.00000000
Si       2.69351894       2.70611111       0.00487226       0.00000000
Si       0.00863370      -2.70308117       2.69695500       0.00000000
Si      -0.04671972       2.70391196      -2.69934736       0.00000000
Si       2.69648372      -0.01299942      -2.71650238       0.00000000
