10
Lattice="16.290000149 0.0 0.0 0.0 16.290000149 0.0 0.0 0.0 29.1751946751" Properties=species:S:1:pos:R:3:initial_magmoms:R:1 pbc="T T T"
Si      -1.37314927       1.35760861       1.32318260       0.00000000
Si      -1.37432215      -1.36477621      -1.33068063       0.00000000
Si       1.35379675       1.37438731      -1.34264246       0.00000000
Si       1.36161595      -1.32507748       1.38821411       0.00000000
Si      -0.01189170       2.66497886       2.71247620       0.00000000
Si       2.68426622      -2.69762402       0.01648398       0.00000000
Si      -0.01356957      -2.71658558      -2.68333018       0.00000000
Si       2.70143588       0.02630835      -2.70847920       0.00000000
Si      -2.71800281       0.02655270       2.69491273       0.00000000
Si       0.00369783      -2.67190211       2.74378118       0.00000000
