10
Lattice="16.290000149 0.0 0.0 0.0 16.290000149 0.0 0.0 0.0 29.1751946751" Properties=species:S:1:pos:R:3:initial_magmoms:R:1 pbc="T T T"
Si       1.29178072      -1.42037398       1.35749263       0.00000000
Si      -1.33468858       1.07440696       1.61799795       0.00000000
Si       1.31237128       1.33229395      -1.44303430       0.00000000
Si      -1.41218011      -1.35597961      -1.32612930       0.00000000
H       -2.52149654       1.58304592       0.81813081       0.00000000
Si       2.71137604       0.01591533       2.53471174       0.00000000
Si      -2.02246868      -0.79053742       3.03655426       0.00000000
Si      -0.34999065      -2.48212361       2.78322605       0.00000000
H       -1.89765470       3.24390918      -0.28588773       0.00000000
Si       2.60120026       2.73997803      -0.12151469       0.00000000
