10
Lattice="16.290000149 0.0 0.0 0.0 16.290000149 0.0 0.0 0.0 29.1751946751" Properties=species:S:1:pos:R:3:initial_magmoms:R:1 pbc="T T T"
H        0.65673136      -0.41324472       0.04592176       0.00000000
H       -1.18097614      -1.65350018       1.12266149       0.00000000
Si      -1.84443527      -1.71103646      -0.23205950       0.00000000
Si       0.85594177       1.74294857       1.76649969       0.00000000
Si      -0.07899021       0.82808587      -2.57415660       0.00000000
Si      -2.20837016       0.24296535      -1.58222916       0.00000000
Si       2.63625959       0.19486098       1.13191003       0.00000000
Si       1.41516118      -0.96635539      -2.45853530       0.00000000
Si      -0.23325651      -2.50097114      -1.73186873       0.00000000
Si      -0.36592227       3.06390468       0.24696802       0.00000000
