10
Lattice="16.290000149 0.0 0.0 0.0 16.290000149 0.0 0.0 0.0 29.1751946751" Properties=species:S:1:pos:R:3:initial_magmoms:R:1 pbc="T T T"
Si      -1.35811360      -0.57376639      -0.27363415       0.00000000
H        0.93338443      -1.76213819      -0.44188750       0.00000000
H        1.59381361      -0.83349415       1.17085891       0.00000000
Si       1.06360669      -1.09819036       2.55679736       0.00000000
Si      -2.71221986       0.78628573       1.05185329       0.00000000
Si      -1.82594612      -0.14773401      -2.48447205       0.00000000
Si       2.05889312      -1.82649998      -1.45295387       0.00000000
Si      -1.17035506       2.09860814       2.24249299       0.00000000
Si       0.00327429       1.14927580      -3.11844903       0.00000000
Si      -1.81128512      -2.78366781       0.34059122       0.00000000
