10
Lattice="16.290000149 0.0 0.0 0.0 16.290000149 0.0 0.0 0.0 29.1751946751" Properties=species:S:1:pos:R:3:initial_magmoms:R:1 pbc="T T T"
Si       1.34598896      -1.36118427       1.35533367       0.00000000
Si      -1.31393366      -1.38355044      -1.36426128       0.00000000
Si      -1.37971903       1.34841291       1.34077525       0.00000000
Si       1.32404633       1.38394140      -1.36189809       0.00000000
Si      -2.63022089       0.05159532      -2.64064687       0.00000000
Si       2.67963498      -0.01252701      -2.64998293       0.00000000
Si      -0.00928693       2.71748968       2.66547496       0.00000000
Si       2.66376852      -2.73172714      -0.03343477       0.00000000
Si       2.70297855       0.00154429       2.70518240       0.00000000
Si      -0.02933829      -2.71001257       2.70570755       0.00000000
