10
Lattice="16.290000149 0.0 0.0 0.0 16.290000149 0.0 0.0 0.0 29.1751946751" Properties=species:S:1:pos:R:3:initial_magmoms:R:1 pbc="T T T"
Si      -1.37142253      -1.37130199      -1.32951362       0.00000000
Si       1.34684092       1.35530195      -1.37508528       0.00000000
Si       1.40550121      -1.33950391       1.33237279       0.00000000
Si      -1.39681864       1.33832777       1.34535575       0.00000000
Si      -0.01442154       2.69828214       2.67691164       0.00000000
Si       0.06953712      -2.69901845       2.69552541       0.00000000
Si      -2.70363503      -0.00429893      -2.70089365       0.00000000
Si      -0.00151008      -2.71108934      -2.70888765       0.00000000
Si      -2.70093089       2.71971978      -0.02786231       0.00000000
Si       2.70337439       2.72314068      -0.03842373       0.00000000
