10
Lattice="16.290000149 0.0 0.0 0.0 16.290000149 0.0 0.0 0.0 29.1751946751" Properties=species:S:1:pos:R:3:initial_magmoms:R:1 pbc="T T T"
Si       1.30675123       1.36498798      -1.39769605       0.00000000
Si      -1.38393325       1.46904850       1.22751714       0.00000000
Si       1.64211346      -1.28443393       1.17024623       0.00000000
Si      -1.51117444      -1.36019872      -1.28131620       0.00000000
Si      -1.45308430      -2.28263627       2.23703723       0.00000000
Si      -2.21961026       0.03477915       2.90147311       0.00000000
Si       2.37540782      -0.09036063      -2.88151728       0.00000000
Si       3.50049297       0.17881533       1.31346726       0.00000000
Si       3.13655808       2.13281714      -0.03670239       0.00000000
H        2.09846153       1.03316068       2.99360838       0.00000000
