10
Lattice="16.290000149 0.0 0.0 0.0 16.290000149 0.0 0.0 0.0 29.1751946751" Properties=species:S:1:pos:R:3:initial_magmoms:R:1 pbc="T T T"
Si       1.31967735      -1.34011315      -1.40358944       0.00000000
Si      -1.34195392       1.36370107      -1.37324724       0.00000000
Si       1.39045088       1.36702423       1.32204477       0.00000000
Si      -1.35374788      -1.34623819       1.39069400       0.00000000
Si      -0.01265733       2.68734503       2.63475348       0.00000000
Si       2.65017125      -2.69918786      -0.03959074       0.00000000
Si      -2.69935076      -2.67682169      -0.01330389       0.00000000
Si      -2.72477945       2.70461243      -0.03439755       0.00000000
Si       0.04055689      -2.70006752       2.73383244       0.00000000
Si       2.67030569       0.02552643      -2.76627526       0.00000000
