10
Lattice="10.86 0.0 0.0 0.0 10.86 0.0 0.0 0.0 10.86" Properties=species:S:1:pos:R:3:initial_magmoms:R:1 pbc="T T T"
Si       1.34655312       0.96063216      -1.37272572       0.00000000
Si      -1.36319064       1.05956676       1.38565998       0.00000000
Si      -1.28709462      -1.48143432      -1.32410550       0.00000000
Si      -2.56358988       2.43884106       0.07309866       0.00000000
Si       0.15141012       2.43884106      -2.64190134       0.00000000
Si      -2.56358988      -0.27615894      -2.64190134       0.00000000
Si       0.15141012       2.43884106       2.78809866       0.00000000
Si       2.86641012       2.43884106       0.07309866       0.00000000
Si       0.13881252      -2.90010870       2.43889536       0.00000000
Si      -2.56358988      -0.27615894       2.78809866       0.00000000
