10
Lattice="10.86 0.0 0.0 0.0 10.86 0.0 0.0 0.0 10.86" Properties=species:S:1:pos:R:3:initial_magmoms:R:1 pbc="T T T"
Si       1.32414894       1.38317304       1.21647204       0.00000000
Si      -1.39085106      -1.33182696       1.21647204       0.00000000
Si      -1.39085106       1.38317304      -1.49852796       0.00000000
Si      -2.42906706      -2.63087844      -0.01597506       0.00000000
Si       2.68164894       0.02567304       2.57397204       0.00000000
Si      -0.03335106      -2.68932696       2.57397204       0.00000000
Si      -0.03335106       2.74067304       2.57397204       0.00000000
Si      -2.74835106       0.02567304       2.57397204       0.00000000
Si       2.68164894       2.74067304      -0.14102796       0.00000000
Si      -2.74835106       2.74067304      -0.14102796       0.00000000
