10
Lattice="10.86 0.0 0.0 0.0 10.86 0.0 0.0 0.0 10.86" Properties=species:S:1:pos:R:3:initial_magmoms:R:1 pbc="T T T"
Si       1.12833228       0.96987402       1.57513440       0.00000000
Si      -1.58666772       0.96987402      -1.13986560       0.00000000
Si       1.12833228      -1.74512598      -1.13986560       0.00000000
Si       2.48583228       2.32737402       0.21763440       0.00000000
Si      -0.22916772       2.32737402      -2.49736560       0.00000000
Si       2.48583228      -0.38762598      -2.49736560       0.00000000
Si      -0.22916772       2.32737402       2.93263440       0.00000000
Si      -2.94416772       2.32737402       0.21763440       0.00000000
Si       2.48583228      -0.38762598       2.93263440       0.00000000
Si       2.48583228      -3.10262598       0.21763440       0.00000000
