10
Lattice="16.290000149 0.0 0.0 0.0 16.290000149 0.0 0.0 0.0 29.1751946751" Properties=species:S:1:pos:R:3:initial_magmoms:R:1 pbc="T T T"
H        0.44934336       1.28723581      -0.65825074       0.00000000
Si      -0.81072073       0.99043201       1.93997539       0.00000000
Si      -1.87471838      -0.70511266      -1.27895301       0.00000000
Si       2.00352341      -1.36805050      -0.07853962       0.00000000
H        0.98929171      -0.25291854      -2.46547900       0.00000000
H       -0.65668249      -2.66989844      -1.05622957       0.00000000
Si       3.16438466       0.68924620      -0.66580712       0.00000000
Si      -2.31376646       2.30019689       0.64459675       0.00000000
Si       0.78657895      -2.95516893      -1.49610398       0.00000000
Si       2.01455174       0.86051926      -2.69450428       0.00000000
