10
Lattice="16.290000149 0.0 0.0 0.0 16.290000149 0.0 0.0 0.0 29.1751946751" Properties=species:S:1:pos:R:3:initial_magmoms:R:1 pbc="T T T"
Si       1.61139052      -0.17352108      -1.68063709       0.00000000
Si      -0.43565976       2.28933472      -0.30207997       0.00000000
Si       0.24879717      -0.51357483       2.29869287       0.00000000
Si      -1.89842033      -1.30082167      -0.63038843       0.00000000
H        1.32726034      -2.22799961       1.51156684       0.00000000
H       -2.78006772      -0.44753517      -1.51877311       0.00000000
Si      -1.49737681       1.02874609       2.75029017       0.00000000
Si       0.04468347      -0.95257405      -3.26881799       0.00000000
Si      -2.33121305       2.27302354       1.03674054       0.00000000
Si      -0.86861539      -2.78884803      -2.10134340       0.00000000
