10
Lattice="16.290000149 0.0 0.0 0.0 16.290000149 0.0 0.0 0.0 29.1751946751" Properties=species:S:1:pos:R:3:initial_magmoms:R:1 pbc="T T T"
Si       1.32815955      -1.36075258       1.37423919       0.00000000
Si      -1.37006720      -1.36893016      -1.32504982       0.00000000
Si      -1.36610873       1.35079939       1.34941110       0.00000000
Si       1.36772796       1.36521604      -1.34413039       0.00000000
Si      -2.69529130       0.01472616      -2.68490564       0.00000000
Si       0.00985545      -2.71700424      -2.66608764       0.00000000
Si       2.68404142       0.00661374       2.71154259       0.00000000
Si      -0.02363516       2.71166600       2.70290674       0.00000000
Si       2.72686783       0.00996948      -2.69826788       0.00000000
Si       2.71238602      -2.71522863       0.03956156       0.00000000
