10
Lattice="16.290000149 0.0 0.0 0.0 16.290000149 0.0 0.0 0.0 29.1751946751" Properties=species:S:1:pos:R:3:initial_magmoms:R:1 pbc="T T T"
Si      -0.43877115       0.24809670      -2.28346371       0.00000000
Si       0.80977591       1.85943836       1.18112275       0.00000000
Si      -1.87392017      -0.80283637       1.19570159       0.00000000
Si       1.63305622      -1.73540630       0.08403040       0.00000000
Si       2.18476595       0.59502484       2.59865793       0.00000000
Si      -0.67091995      -2.19963872       2.63750470       0.00000000
Si      -2.15744762       1.87849766      -2.17968755       0.00000000
Si      -0.48816243      -2.04604031      -2.95046701       0.00000000
Si       1.71585830      -2.42753582      -2.14584432       0.00000000
Si       0.64430209      -3.52276140       1.23650310       0.00000000
