10
Lattice="16.290000149 0.0 0.0 0.0 16.290000149 0.0 0.0 0.0 29.1751946751" Properties=species:S:1:pos:R:3:initial_magmoms:R:1 pbc="T T T"
Si       1.36866952       1.34882830       1.33794525       0.00000000
Si       1.44277273      -1.33170425      -1.28274578       0.00000000
Si      -1.34975683      -1.38765063       1.33555289       0.00000000
Si      -1.37730322       1.33996654      -1.35895139       0.00000000
Si       0.11793960      -2.66794804      -2.62024174       0.00000000
Si       0.03372030       2.74437633      -2.61660943       0.00000000
Si       0.00327429       2.69638598       2.68793986       0.00000000
Si       2.69389361      -0.03482802       2.69780108       0.00000000
Si      -2.71231760      -0.02492370       2.68137544       0.00000000
Si      -2.79697674      -0.08912259      -2.59480972       0.00000000
