10
Lattice="16.290000149 0.0 0.0 0.0 16.290000149 0.0 0.0 0.0 29.1751946751" Properties=species:S:1:pos:R:3:initial_magmoms:R:1 pbc="T T T"
Si       1.08032023      -1.42170976      -1.49797120       0.00000000
Si      -1.54797355       1.32159142      -1.18556321       0.00000000
Si      -1.05358834      -1.76337623       1.18080765       0.00000000
Si       2.12667581       0.97073740       0.67916936       0.00000000
Si       0.21711312       0.80418844       3.38814453       0.00000000
Si       2.37149822      -2.71588511      -0.06923274       0.00000000
Si      -0.20455353       2.70018155      -2.49911800       0.00000000
Si       2.49481352      -0.09690921      -2.73815037       0.00000000
Si      -1.40382334      -0.88264108       3.31546912       0.00000000
H        3.20030085      -1.77603356       0.75056106       0.00000000
