10
Lattice="16.290000149 0.0 0.0 0.0 16.290000149 0.0 0.0 0.0 29.1751946751" Properties=species:S:1:pos:R:3:initial_magmoms:R:1 pbc="T T T"
Si       1.72050095      -0.75740356      -1.38004506       0.00000000
Si       1.35910729       1.34534224       1.34065855       0.00000000
Si      -1.43983402       1.18522783      -1.44440554       0.00000000
Si      -1.19177967      -1.69450211       1.18673022       0.00000000
Si      -1.67420151      -0.67357522      -2.87334822       0.00000000
Si       0.63568468      -0.84913255      -3.47406548       0.00000000
Si       2.56544696      -2.60319089      -0.25674171       0.00000000
Si      -2.65189099      -0.41391261       2.53202762       0.00000000
Si      -0.08684199       2.53869878       2.69710525       0.00000000
Si       2.63816552      -0.15061734       2.67767019       0.00000000
