10
Lattice="16.290000149 0.0 0.0 0.0 16.290000149 0.0 0.0 0.0 29.1751946751" Properties=species:S:1:pos:R:3:initial_magmoms:R:1 pbc="T T T"
Si      -1.25794639      -1.36920709       1.42579468       0.00000000
Si      -1.45168336       1.41729517      -1.21759757       0.00000000
Si       0.95729815      -1.27128790      -1.75345838       0.00000000
Si       1.38911347       1.37826433       1.34209688       0.00000000
Si       2.35067960       0.16404030      -2.92962717       0.00000000
Si      -2.68488524       0.00625536       2.71972915       0.00000000
Si      -2.06772230      -3.22864545       0.24467194       0.00000000
Si       2.73802322       0.01585017       2.71842502       0.00000000
Si       0.02590110       2.72600120       2.73280256       0.00000000
Si      -0.18880110       2.90155854      -2.54536068       0.00000000
