10
Lattice="16.290000149 0.0 0.0 0.0 16.290000149 0.0 0.0 0.0 29.1751946751" Properties=species:S:1:pos:R:3:initial_magmoms:R:1 pbc="T T T"
H       -0.15394050       0.79537555       1.27597714       0.00000000
Si       1.08268228       1.16623369      -1.70502755       0.00000000
Si      -2.21153042       0.07861554      -0.80418507       0.00000000
Si       0.86196907      -2.07717050       0.79379870       0.00000000
H       -1.44811585      -1.88025698       1.70899538       0.00000000
H       -1.55802448       2.82450684       0.82218616       0.00000000
Si      -2.72974790      -1.91964620       0.88972674       0.00000000
Si       1.95856301      -0.61491493      -2.98832766       0.00000000
Si       0.71856820      -1.66110761       3.15235061       0.00000000
Si      -2.75426436       2.45803070      -0.06850336       0.00000000
