10
Lattice="16.290000149 0.0 0.0 0.0 16.290000149 0.0 0.0 0.0 29.1751946751" Properties=species:S:1:pos:R:3:initial_magmoms:R:1 pbc="T T T"
Si       1.42901909       1.43936812       1.15697152       0.00000000
Si       1.43359169      -1.24685290      -1.36916271       0.00000000
Si      -1.29894832       1.41227785      -1.35419584       0.00000000
Si      -1.63644454      -1.06008805       1.43048897       0.00000000
H        0.24779534      -2.69956253       1.68976893       0.00000000
H       -1.08620092       1.39918069       2.82261256       0.00000000
Si      -0.06094089       2.51261849       2.59358728       0.00000000
Si      -2.63643878       2.47348991       0.26362706       0.00000000
Si      -3.31900608       0.61230853       1.68241678       0.00000000
Si       2.86498749      -2.46083258       0.01342059       0.00000000
