10
Lattice="16.290000149 0.0 0.0 0.0 16.290000149 0.0 0.0 0.0 29.1751946751" Properties=species:S:1:pos:R:3:initial_magmoms:R:1 pbc="T T T"
Si       0.65366884      -0.42344226       2.13141719       0.00000000
Si      -1.07095348      -1.75962953      -1.06428193       0.00000000
Si      -1.70124617       1.59777208      -0.01549203       0.00000000
Si       1.78636142       0.58710790      -1.44137132       0.00000000
Si      -0.30786471       3.03310029      -1.19166083       0.00000000
H        3.08377848       1.13785651      -0.52150660       0.00000000
H       -0.55894249      -3.04183173       1.33126413       0.00000000
Si      -1.99910882      -0.71664598      -2.89811796       0.00000000
Si      -1.25421598      -1.21367017       3.25315966       0.00000000
Si       0.76165525       1.92225260      -3.05983607       0.00000000
