10
Lattice="16.290000149 0.0 0.0 0.0 16.290000149 0.0 0.0 0.0 29.1751946751" Properties=species:S:1:pos:R:3:initial_magmoms:R:1 pbc="T T T"
Si      -0.92815534       1.04298355      -1.83383604       0.00000000
Si       1.07095348       1.75962953       1.06428193       0.00000000
Si       1.33292926      -1.54673551      -1.15717575       0.00000000
Si      -1.93945484      -1.02749176       0.90107589       0.00000000
H        0.51201099      -1.28220220       2.39554606       0.00000000
Si       0.69089149      -2.66972088       1.78496759       0.00000000
Si      -1.69922621      -1.00176985      -2.71440176       0.00000000
Si      -0.47760651      -2.87236523      -1.76244434       0.00000000
Si      -2.22412259       2.54457947      -0.51292910       0.00000000
Si      -1.20980944      -3.21763504       0.49921676       0.00000000
