10
Lattice="16.290000149 0.0 0.0 0.0 16.290000149 0.0 0.0 0.0 29.1751946751" Properties=species:S:1:pos:R:3:initial_magmoms:R:1 pbc="T T T"
Si       1.43139580      -1.21397968       1.38258330       0.00000000
Si      -1.43359169       1.24685290       1.36916271       0.00000000
Si      -1.35678385      -1.41209866      -1.31425499       0.00000000
Si       1.36814173       1.42236136      -1.30672779       0.00000000
H       -1.18579635      -1.45270963       3.05893164       0.00000000
Si      -0.04820700      -2.41865777       2.76925113       0.00000000
Si      -0.00457260       2.68622102       2.52613423       0.00000000
Si       2.57352029      -2.64233576      -0.08177807       0.00000000
Si       2.56622237       0.02042766      -2.78092121       0.00000000
Si      -2.73254001       2.65913075       0.01496687       0.00000000
