10
Lattice="16.290000149 0.0 0.0 0.0 16.290000149 0.0 0.0 0.0 29.1751946751" Properties=species:S:1:pos:R:3:initial_magmoms:R:1 pbc="T T T"
Si      -1.43139580       1.21397968      -1.38258330       0.00000000
Si       1.14212449      -1.42835608      -1.46436137       0.00000000
Si      -1.47960279      -1.20467809       1.38666783       0.00000000
Si       1.50625486       1.34053669       1.30025090       0.00000000
H        0.03345966      -2.67633299       0.75814661       0.00000000
H       -2.61719215      -0.23872995       1.67634834       0.00000000
H        2.04854897      -2.32573961      -0.65413704       0.00000000
Si      -0.19130976      -1.05155209       3.41230159       0.00000000
Si      -0.06325407       2.63634104      -2.68931109       0.00000000
Si      -2.86498749       2.46083258      -0.01342059       0.00000000
