10
Lattice="16.290000149 0.0 0.0 0.0 16.290000149 0.0 0.0 0.0 29.1751946751" Properties=species:S:1:pos:R:3:initial_magmoms:R:1 pbc="T T T"
Si       1.36746406       1.35790183       1.32887177       0.00000000
Si       1.37122705      -1.35643573      -1.33251867       0.00000000
Si      -1.34296390       1.38313504      -1.34369277       0.00000000
Si      -1.37490859      -1.33700176       1.36157716       0.00000000
Si      -0.07108956       2.69185736       2.60972116       0.00000000
Si      -0.00210141      -2.70355358      -2.67577380       0.00000000
Si      -2.69122205       0.02160054      -2.69409583       0.00000000
Si      -0.02068830      -2.70324407       2.69966829       0.00000000
Si       2.72104904       0.00850338      -2.68890264       0.00000000
Si       2.72124452       2.70990668      -0.03244282       0.00000000
