10
Lattice="16.290000149 0.0 0.0 0.0 16.290000149 0.0 0.0 0.0 29.1751946751" Properties=species:S:1:pos:R:3:initial_magmoms:R:1 pbc="T T T"
Si       1.30948795      -1.42783480       1.29724586       0.00000000
Si      -1.35117406      -1.38592063      -1.32300755       0.00000000
Si       1.37598373       1.33074640      -1.35533367       0.00000000
Si      -1.30038184       1.35821134       1.41724343       0.00000000
Si       2.66725946      -0.08679312       2.60341932       0.00000000
Si      -2.66846167       2.70120782       0.05977997       0.00000000
Si       0.00957852       2.68856678      -2.68344688       0.00000000
Si      -2.68997587      -0.02648754      -2.68586842       0.00000000
Si       0.03761361      -2.73655713      -2.65616807       0.00000000
Si      -2.63180428      -0.03891681       2.76230743       0.00000000
