10
Lattice="16.290000149 0.0 0.0 0.0 16.290000149 0.0 0.0 0.0 29.1751946751" Properties=species:S:1:pos:R:3:initial_magmoms:R:1 pbc="T T T"
Si       1.41198137       1.39057957      -1.25653187       0.00000000
Si       1.36566890      -1.34798122       1.37202188       0.00000000
Si      -1.28143787       1.34519563       1.45642572       0.00000000
Si      -1.39064799      -1.28689372      -1.43485650       0.00000000
Si      -2.69370139      -2.64075563      -0.00061268       0.00000000
Si      -2.59832344       2.78039677       0.18056528       0.00000000
Si       0.13321148       2.76390152      -2.64389990       0.00000000
Si       2.74175038       0.07636752      -2.67625228       0.00000000
Si       2.71751086      -2.71725347       0.01336224       0.00000000
Si       2.71334062       2.71772100       0.16901190       0.00000000
