10
Lattice="16.290000149 0.0 0.0 0.0 16.290000149 0.0 0.0 0.0 29.1751946751" Properties=species:S:1:pos:R:3:initial_magmoms:R:1 pbc="T T T"
Si      -1.33354828      -1.34016039       1.32875215       0.00000000
Si       1.49791438      -1.23583923      -1.27993913       0.00000000
Si      -1.24947559       1.37037997      -1.41338647       0.00000000
Si       1.41967351       1.42908913       1.23585833       0.00000000
Si       0.65840923       2.16060788      -2.53512894       0.00000000
H       -0.55420210      -0.45778158      -3.33528200       0.00000000
Si       2.36359757       0.49205574      -2.66235234       0.00000000
Si       0.10049301      -2.68640021       2.59078354       0.00000000
Si      -2.66370824       0.07946262       2.61505731       0.00000000
Si      -2.69430086      -2.62267165      -0.08143964       0.00000000
