10
Lattice="16.290000149 0.0 0.0 0.0 16.290000149 0.0 0.0 0.0 29.1751946751" Properties=species:S:1:pos:R:3:initial_magmoms:R:1 pbc="T T T"
H       -1.13758935       0.96594814       0.28968051       0.00000000
H        1.51306245      -1.47165490      -0.62852122       0.00000000
Si       1.47960279       1.20467809      -1.38666783       0.00000000
Si       1.28829303       0.15312600       2.02563377       0.00000000
Si      -1.31721137      -1.70093666      -1.13654888       0.00000000
H       -2.29179288      -0.84624922       2.21900696       0.00000000
Si       2.12641354      -2.77756231      -0.19048485       0.00000000
Si       0.04820700       2.41865777      -2.76925113       0.00000000
Si      -2.60444685      -0.35209206      -2.63810863       0.00000000
Si       0.74555910       2.53254116       2.76131548       0.00000000
