10
Lattice="16.290000149 0.0 0.0 0.0 16.290000149 0.0 0.0 0.0 29.1751946751" Properties=species:S:1:pos:R:3:initial_magmoms:R:1 pbc="T T T"
Si       1.38748447       1.35933535      -1.30407285       0.00000000
Si       1.38271150      -1.34571691       1.33569876       0.00000000
Si      -1.31779585       1.37060803       1.38888514       0.00000000
Si      -1.33066495      -1.34566804      -1.41461766       0.00000000
Si       0.01700676       2.72003418      -2.61762764       0.00000000
Si       0.01448181      -2.68960934       2.67851627       0.00000000
Si      -2.67729899      -2.69329088      -0.04589258       0.00000000
Si      -2.66361376       2.73151211       0.03343477       0.00000000
Si       2.71150310       0.00759114      -2.68872759       0.00000000
Si      -2.69350428       0.02269197       2.73960913       0.00000000
