10
Lattice="16.290000149 0.0 0.0 0.0 16.290000149 0.0 0.0 0.0 29.1751946751" Properties=species:S:1:pos:R:3:initial_magmoms:R:1 pbc="T T T"
Si      -1.32729292       1.35889552       1.36621602       0.00000000
Si       1.37730322      -1.33996654       1.35895139       0.00000000
Si       1.41102352       1.40440978      -1.25765803       0.00000000
Si      -1.41967351      -1.42908913      -1.23585833       0.00000000
Si       0.07824087      -2.66492837      -2.51579746       0.00000000
Si       2.66882330       0.00296478      -2.62205352       0.00000000
Si      -2.66914910      -0.05870916      -2.64924480       0.00000000
Si       0.05124834       2.72297126       2.67093072       0.00000000
Si      -2.64433943       2.75030589       0.02444881       0.00000000
Si       0.09602955       2.66799251      -2.73027890       0.00000000
