10
Lattice="16.290000149 0.0 0.0 0.0 16.290000149 0.0 0.0 0.0 29.1751946751" Properties=species:S:1:pos:R:3:initial_magmoms:R:1 pbc="T T T"
Si      -1.27876990       1.37332195      -1.38736803       0.00000000
Si       1.30135924       1.32714143       1.42554377       0.00000000
Si      -1.41198137      -1.39057957       1.25653187       0.00000000
Si       1.32976900      -1.31421205      -1.41972041       0.00000000
Si       2.64749969       2.65722482       0.07863007       0.00000000
Si      -0.04631247      -2.73856079       2.62855375       0.00000000
Si       2.65870721      -2.71000442      -0.05046433       0.00000000
Si      -0.09726759      -2.67344966      -2.69886159       0.00000000
Si      -2.71102827       2.68017743      -0.03499856       0.00000000
Si      -2.69341925      -0.04538394       2.71295759       0.00000000
