10
Lattice="16.290000149 0.0 0.0 0.0 16.290000149 0.0 0.0 0.0 29.1751946751" Properties=species:S:1:pos:R:3:initial_magmoms:R:1 pbc="T T T"
Si      -1.29015172      -1.25323858       1.49021059       0.00000000
Si      -1.42560307       1.36850662      -1.24901926       0.00000000
Si       1.17768556      -1.45601650      -1.40814077       0.00000000
Si       1.84779101       0.93190204       1.11635965       0.00000000
Si       3.44386893      -0.84958867       1.02874654       0.00000000
Si      -0.05220945       2.69216687      -2.61109240       0.00000000
Si       2.56648952      -2.73843047      -0.04154548       0.00000000
Si       2.55839339      -0.11608254      -2.74556087       0.00000000
Si      -2.78995575      -0.01101204      -2.59431666       0.00000000
Si       0.13853016      -2.59397075       2.79297056       0.00000000
