10
Lattice="16.290000149 0.0 0.0 0.0 16.290000149 0.0 0.0 0.0 29.1751946751" Properties=species:S:1:pos:R:3:initial_magmoms:R:1 pbc="T T T"
Si      -1.88516027      -1.34342002      -0.38928462       0.00000000
Si       0.52245288       1.25462160      -1.93154376       0.00000000
Si       1.92854054      -1.49356495       0.31780540       0.00000000
H       -0.89621065      -0.98852608       2.06785027       0.00000000
Si      -1.61585398       1.52938829       1.07595200       0.00000000
H       -2.79013494      -1.41750694       0.82953831       0.00000000
Si       0.19468179       2.85501801       1.68122059       0.00000000
Si      -2.77441509       0.07903908      -1.98073314       0.00000000
Si      -0.01456326      -1.84181258       2.95623495       0.00000000
Si       1.54917901      -0.36800739      -3.25052514       0.00000000
