10
Lattice="16.290000149 0.0 0.0 0.0 16.290000149 0.0 0.0 0.0 29.1751946751" Properties=species:S:1:pos:R:3:initial_magmoms:R:1 pbc="T T T"
Si       1.48910149      -1.26622171      -1.28470052       0.00000000
Si      -1.34387614       1.41081175      -1.37304301       0.00000000
Si      -1.39476610      -1.82092880       0.75210734       0.00000000
Si       1.07171911       1.69129298       1.38380866       0.00000000
H        2.95595899       0.05181849       1.64308861       0.00000000
Si      -2.47099754       2.52332102       0.38094052       0.00000000
Si       0.06217893      -2.53821008      -2.68969037       0.00000000
Si      -0.61084243       3.36368955       1.63573646       0.00000000
Si       2.77633698      -2.61506630       0.21685922       0.00000000
Si      -3.15415128      -0.85566484       2.01157132       0.00000000
