10
Lattice="16.290000149 0.0 0.0 0.0 16.290000149 0.0 0.0 0.0 29.1751946751" Properties=species:S:1:pos:R:3:initial_magmoms:R:1 pbc="T T T"
Si       1.83241325       1.02201832      -0.94226834       0.00000000
Si       1.40629942      -1.36374994       1.25443709       0.00000000
Si      -1.32040225       1.48892439       1.20860286       0.00000000
Si      -1.30455208      -1.18402237      -1.55324856       0.00000000
Si       0.99857701       2.26629577      -2.65581797       0.00000000
Si      -2.67019166       0.09389556       2.51945311       0.00000000
Si      -2.62539416      -2.58729185      -0.20989219       0.00000000
Si       0.05069448      -2.70423776       2.56989702       0.00000000
Si       2.74406682      -2.51789645      -0.30259637       0.00000000
Si       2.82843273       0.09599697       2.47954145       0.00000000
