10
Lattice="16.290000149 0.0 0.0 0.0 16.290000149 0.0 0.0 0.0 29.1751946751" Properties=species:S:1:pos:R:3:initial_magmoms:R:1 pbc="T T T"
Si       1.28176237       1.45123523      -1.27594796       0.00000000
Si      -1.02672613       1.62262900       1.31898138       0.00000000
Si       1.51855381      -0.99641044       1.51244209       0.00000000
Si      -1.56950893      -1.31255047      -1.20811564       0.00000000
Si       2.48388293       2.58922548       0.41460869       0.00000000
Si      -1.54917901       0.36800739       3.25052514       0.00000000
Si       2.56310120       0.04715955      -2.64225151       0.00000000
H        0.67632823      -2.27455643      -2.84822838       0.00000000
Si       3.06133086       0.84281203       1.92667151       0.00000000
Si       2.48821607      -2.77190643       0.26730313       0.00000000
