10
Lattice="16.290000149 0.0 0.0 0.0 16.290000149 0.0 0.0 0.0 29.1751946751" Properties=species:S:1:pos:R:3:initial_magmoms:R:1 pbc="T T T"
Si       1.34627077      -1.34491870       1.36539911       0.00000000
Si      -1.35404110       1.32919885       1.40128460       0.00000000
Si      -1.42213330      -1.45974691      -1.22510435       0.00000000
Si       1.46038222       1.43677361      -1.21493096       0.00000000
Si      -0.99601948       0.92602135      -3.42180979       0.00000000
Si       0.04338027       2.77975983      -2.46943808       0.00000000
Si      -2.82843273      -0.09599697      -2.47954145       0.00000000
Si       2.68983740      -2.64813500      -0.05861297       0.00000000
Si      -0.08436591      -2.61389342      -2.78213781       0.00000000
Si      -0.00912240      -2.71557560       2.71163012       0.00000000
