10
Lattice="16.290000149 0.0 0.0 0.0 16.290000149 0.0 0.0 0.0 29.1751946751" Properties=species:S:1:pos:R:3:initial_magmoms:R:1 pbc="T T T"
Si      -1.36011727      -1.35439948      -1.35367068       0.00000000
Si      -1.36881613       1.35373159       1.35168677       0.00000000
Si       1.34835589      -1.36068742       1.36554499       0.00000000
Si       1.35511624       1.34392501      -1.37601888       0.00000000
Si       2.69014691       2.69524568       0.01797192       0.00000000
Si      -2.69123834      -2.71204067       0.02964200       0.00000000
Si       0.01873350      -2.71370225      -2.68969037       0.00000000
Si       2.71353935      -0.00539199       2.71244702       0.00000000
Si      -0.02133990       2.69122205      -2.73546625       0.00000000
Si      -2.71981589       2.71287146      -0.00808153       0.00000000
