10
Lattice="16.290000149 0.0 0.0 0.0 16.290000149 0.0 0.0 0.0 29.1751946751" Properties=species:S:1:pos:R:3:initial_magmoms:R:1 pbc="T T T"
Si       0.92815534      -1.04298355       1.83383604       0.00000000
Si      -0.77107087      -2.04475340      -0.88056573       0.00000000
Si      -1.29596725       1.50159592       1.32090694       0.00000000
Si       1.99148510       0.59865751      -1.17050881       0.00000000
H       -0.26013501       2.68087790      -1.44440554       0.00000000
Si      -0.15561837      -1.52998939      -3.06254936       0.00000000
Si       2.26108460      -2.58971906       0.67666029       0.00000000
Si      -1.01129950      -2.07047531       2.73491192       0.00000000
Si       1.99910882       0.71664598       2.89811796       0.00000000
Si       0.29786265       2.31441806       2.88262593       0.00000000
