10
Lattice="16.290000149 0.0 0.0 0.0 16.290000149 0.0 0.0 0.0 29.1751946751" Properties=species:S:1:pos:R:3:initial_magmoms:R:1 pbc="T T T"
Si       1.44060545      -1.35079939       1.28630516       0.00000000
Si      -1.25822332      -1.36730116      -1.45651324       0.00000000
Si       1.37751499       1.32708115      -1.39066483       0.00000000
Si      -1.43083216       1.28244655       1.41161262       0.00000000
Si       0.09133803      -2.75685447       2.59402491       0.00000000
Si      -2.69237864       2.67431466      -0.02048099       0.00000000
Si      -0.03072294       2.69910967       2.67002629       0.00000000
Si      -2.59612103      -2.81574282      -0.20177565       0.00000000
Si      -2.73004112      -0.30910275       2.68338853       0.00000000
Si       2.74732156       2.70008707      -0.06056770       0.00000000
