10
Lattice="16.290000149 0.0 0.0 0.0 16.290000149 0.0 0.0 0.0 29.1751946751" Properties=species:S:1:pos:R:3:initial_magmoms:R:1 pbc="T T T"
Si       1.38194587      -1.35648460      -1.32443714       0.00000000
Si       1.33714837       1.32470281       1.40490816       0.00000000
Si      -1.35317773      -1.39782862       1.32035845       0.00000000
Si      -1.32893821       1.39579237      -1.36925607       0.00000000
Si      -0.03096729      -2.65276136      -2.66783232       0.00000000
Si      -2.65870721       2.71000442       0.05046433       0.00000000
Si       2.70278795       0.04678488      -2.66779351       0.00000000
Si      -2.70501968      -0.02855637       2.67901809       0.00000000
Si      -2.75597481       0.03655476      -2.64839726       0.00000000
Si       2.68693778       2.71973164       0.09405791       0.00000000
