10
Lattice="16.290000149 0.0 0.0 0.0 16.290000149 0.0 0.0 0.0 29.1751946751" Properties=species:S:1:pos:R:3:initial_magmoms:R:1 pbc="T T T"
Si      -1.35511624      -1.34392501       1.37601888       0.00000000
Si       1.33503067       1.35132067       1.39399080       0.00000000
Si      -1.37645614       1.34729704      -1.35944737       0.00000000
Si       1.36280512      -1.37358910      -1.34967368       0.00000000
Si       2.71438643      -2.69247638       0.05823369       0.00000000
Si       2.69878061       2.71305065       0.06459388       0.00000000
Si      -2.71523351      -2.69832449       0.02234820       0.00000000
Si      -0.02327841       2.74512567      -2.67980582       0.00000000
Si       2.73005741      -0.02335986      -2.70008549       0.00000000
Si      -2.72829809       2.71656929      -0.00078773       0.00000000
