10
Lattice="16.290000149 0.0 0.0 0.0 16.290000149 0.0 0.0 0.0 29.1751946751" Properties=species:S:1:pos:R:3:initial_magmoms:R:1 pbc="T T T"
Si      -1.56717946       1.28042659      -1.12409108       0.00000000
Si      -1.39338145      -1.43532820       1.17616880       0.00000000
Si       1.56370969       1.12353760       1.46771652       0.00000000
Si       1.06951996      -1.11084769      -1.86817524       0.00000000
Si       2.09422613      -2.44599239      -0.24971049       0.00000000
Si       0.30786471      -3.03310029       1.19166083       0.00000000
Si       0.05056416       2.30933558      -2.51779013       0.00000000
Si       1.82944847       0.76036834      -3.14928721       0.00000000
Si      -2.53948070       2.73751823       0.38426649       0.00000000
Si      -2.98721136      -2.24815034      -0.38555020       0.00000000
