10
Lattice="16.290000149 0.0 0.0 0.0 16.290000149 0.0 0.0 0.0 29.1751946751" Properties=species:S:1:pos:R:3:initial_magmoms:R:1 pbc="T T T"
Si       1.34247357       1.36086661       1.35349563       0.00000000
Si      -1.33587775       1.37640727      -1.35264955       0.00000000
Si       1.36610873      -1.35079939      -1.34941110       0.00000000
Si      -1.35376417      -1.34702011       1.37473517       0.00000000
Si      -2.69457779       0.01148445      -2.68432214       0.00000000
Si       2.67141341       0.00130320       2.71860299       0.00000000
Si      -0.00395847      -2.71972955      -2.67446092       0.00000000
Si       2.69426828      -2.71155197       0.02482809       0.00000000
Si      -2.68309334       2.72453510       0.01403327       0.00000000
Si       2.69330717       2.72658764      -0.00997792       0.00000000
