10
Lattice="16.290000149 0.0 0.0 0.0 16.290000149 0.0 0.0 0.0 29.1751946751" Properties=species:S:1:pos:R:3:initial_magmoms:R:1 pbc="T T T"
H        0.82880263       0.93985156       0.81979380       0.00000000
Si      -1.29117799       1.29417535      -1.42873846       0.00000000
Si      -1.82900864      -0.82898182       1.16242728       0.00000000
Si       1.43363404      -1.44070390      -1.12219469       0.00000000
H        1.63624906       0.16011441       2.45996489       0.00000000
H        2.28578024       1.83495449       1.34923605       0.00000000
Si      -2.37149822       2.71588511       0.06923274       0.00000000
Si       2.78446602      -0.04996143      -2.46679189       0.00000000
Si       0.07420095      -2.75079459      -2.51131323       0.00000000
Si      -1.19672857      -1.22969953       3.31039264       0.00000000
