10
Lattice="16.290000149 0.0 0.0 0.0 16.290000149 0.0 0.0 0.0 29.1751946751" Properties=species:S:1:pos:R:3:initial_magmoms:R:1 pbc="T T T"
Si      -1.43308018       1.32330187       1.28006167       0.00000000
Si      -1.37922544      -1.33962445      -1.33085568       0.00000000
Si       1.34765542       1.35824392      -1.35299965       0.00000000
Si       1.35560494      -1.33201702       1.38062856       0.00000000
Si      -0.00977400       2.71295291       2.46320334       0.00000000
Si      -0.00096111      -2.70560612      -2.64289336       0.00000000
Si       2.72618039       0.01125639      -2.67402329       0.00000000
Si      -2.72989451       0.03678282      -2.67326474       0.00000000
Si      -0.01444923       2.75263536      -2.65768518       0.00000000
Si       2.72725553      -2.69166188       0.05852544       0.00000000
