10
Lattice="16.290000149 0.0 0.0 0.0 16.290000149 0.0 0.0 0.0 29.1751946751" Properties=species:S:1:pos:R:3:initial_magmoms:R:1 pbc="T T T"
Si      -0.72964540       2.19014328       0.40185913       0.00000000
Si       1.90070093       0.54791415       1.28575083       0.00000000
Si      -1.61772733      -1.48743828       0.93821591       0.00000000
Si       0.73220293       0.34526981      -2.26166109       0.00000000
H        1.45184626      -2.17264456      -1.26976282       0.00000000
H        1.72182044       1.93543284       1.89632930       0.00000000
Si       2.54273870       1.67089952      -1.65639250       0.00000000
Si       1.20980944       3.21763504      -0.49921676       0.00000000
H       -0.44207802      -2.60162542      -2.50807479       0.00000000
Si      -0.40242816      -2.90240399       2.38832024       0.00000000
