10
Lattice="16.290000149 0.0 0.0 0.0 16.290000149 0.0 0.0 0.0 29.1751946751" Properties=species:S:1:pos:R:3:initial_magmoms:R:1 pbc="T T T"
Si      -1.30888522      -1.28956528       1.47046190       0.00000000
Si      -1.34890975       1.36241416      -1.37632814       0.00000000
Si       1.43148376      -1.37187865      -1.28426581       0.00000000
Si       1.37200897       1.40631571       1.31218647       0.00000000
Si      -2.62097957      -2.64947078       0.12490484       0.00000000
Si       2.64842822       0.06232554      -2.72650655       0.00000000
Si       2.74647774      -2.63546138       0.18835506       0.00000000
Si      -2.71212212       2.71015103       0.01437754       0.00000000
Si       2.71150310       0.06993297       2.73403959       0.00000000
Si      -2.73802322      -0.01585017      -2.71842502       0.00000000
