10
Lattice="16.290000149 0.0 0.0 0.0 16.290000149 0.0 0.0 0.0 29.1751946751" Properties=species:S:1:pos:R:3:initial_magmoms:R:1 pbc="T T T"
Si       0.84494602      -1.84578734       1.12330335       0.00000000
Si      -1.72050095       0.75740356       1.38004506       0.00000000
Si      -1.08481627      -0.09172899      -2.09402042       0.00000000
Si       1.79753636       1.59588244       0.11521284       0.00000000
H        2.32837859       1.85254769      -1.27241777       0.00000000
H       -1.15641082      -3.02401047      -1.06349420       0.00000000
Si      -0.36139365       2.10274580       2.72070360       0.00000000
Si       2.56113011      -2.28898937      -0.40072130       0.00000000
H        1.65346760       0.92484847      -2.89549220       0.00000000
Si      -0.63219862       2.11359494      -2.72376700       0.00000000
