10
Lattice="16.290000149 0.0 0.0 0.0 16.290000149 0.0 0.0 0.0 29.1751946751" Properties=species:S:1:pos:R:3:initial_magmoms:R:1 pbc="T T T"
Si       1.25351551      -1.10667419       1.60332282       0.00000000
Si      -1.81053578      -1.32562971      -0.60526859       0.00000000
Si       1.21824766       1.32150997      -1.49557883       0.00000000
Si      -1.33292926       1.54673551       1.15717575       0.00000000
Si      -0.64203778      -1.12298537       2.94214333       0.00000000
H        3.09208638      -0.52723563      -0.77678956       0.00000000
Si      -0.19468179      -2.85501801      -1.68122059       0.00000000
Si       2.75315664       2.04136508       0.11448346       0.00000000
Si      -3.03215547       0.54496567      -1.55722602       0.00000000
Si      -2.54273870      -1.67089952       1.65639250       0.00000000
