10
Lattice="16.290000149 0.0 0.0 0.0 16.290000149 0.0 0.0 0.0 29.1751946751" Properties=species:S:1:pos:R:3:initial_magmoms:R:1 pbc="T T T"
Si      -1.33920091      -1.34889346       1.37260538       0.00000000
Si       1.32370912      -1.37137366      -1.37278043       0.00000000
Si      -1.35974260       1.32633181      -1.39002298       0.00000000
Si       1.34395759       1.32633181       1.40779067       0.00000000
Si       2.69974172       2.67305870       0.01368317       0.00000000
Si       2.62699058      -2.75152764       0.00294669       0.00000000
Si      -2.73139319       2.68597667      -0.06791985       0.00000000
Si      -2.73139319       0.00320913       2.68703543       0.00000000
Si       2.67747329      -0.02435355      -2.74751561       0.00000000
Si      -0.00562005       2.70018155      -2.73348234       0.00000000
