10
Lattice="16.290000149 0.0 0.0 0.0 16.290000149 0.0 0.0 0.0 29.1751946751" Properties=species:S:1:pos:R:3:initial_magmoms:R:1 pbc="T T T"
Si      -1.43363404       1.44070390       1.12219469       0.00000000
Si      -1.35943309      -1.31009068      -1.38911854       0.00000000
Si       1.35083197       1.39074247      -1.34459720       0.00000000
Si       1.32973642      -1.31890357       1.44137132       0.00000000
H       -0.60483142       2.38055546       1.94198848       0.00000000
Si      -2.70023042      -2.64547973      -0.01776769       0.00000000
Si       0.01221750      -2.66973554      -2.71122167       0.00000000
Si       2.71591769      -2.66973554       0.08659198       0.00000000
Si       2.73150723       0.04430880      -2.68149214       0.00000000
Si      -2.72481203       2.73487925      -0.30654377       0.00000000
