10
Lattice="16.290000149 0.0 0.0 0.0 16.290000149 0.0 0.0 0.0 29.1751946751" Properties=species:S:1:pos:R:3:initial_magmoms:R:1 pbc="T T T"
Si      -1.34395759      -1.32633181      -1.40779067       0.00000000
Si      -1.38618127       1.35083197       1.35477934       0.00000000
Si       1.35578413       1.34672689      -1.39410750       0.00000000
Si       1.39202987      -1.35312886       1.35276625       0.00000000
Si      -2.68315850      -2.67522527      -0.03518528       0.00000000
Si       2.66248324      -2.71524980      -0.07156675       0.00000000
Si      -2.71591769       2.66973554      -0.08659198       0.00000000
Si       0.01627371       2.71810055       2.68198812       0.00000000
Si       2.74881372       0.05896980       2.66702125       0.00000000
Si      -2.73681776      -0.03474657       2.70982126       0.00000000
