10
Lattice="16.290000149 0.0 0.0 0.0 16.290000149 0.0 0.0 0.0 29.1751946751" Properties=species:S:1:pos:R:3:initial_magmoms:R:1 pbc="T T T"
Si       1.38541564      -1.31416318      -1.35839706       0.00000000
Si       1.37103157       1.36140418       1.32682950       0.00000000
Si      -1.35571897       1.37041255      -1.33896638       0.00000000
Si      -1.35610993      -1.35545833       1.35795944       0.00000000
Si       0.00687438      -2.67823892      -2.66311177       0.00000000
Si      -0.00749340       2.70839171       2.64785314       0.00000000
Si       0.02443500       2.68822469      -2.70238158       0.00000000
Si       2.71474481      -2.68071500       0.01756347       0.00000000
Si      -2.73437427       0.01052334       2.66999712       0.00000000
Si      -2.73456975      -2.69087996       0.01353729       0.00000000
