10
Lattice="16.290000149 0.0 0.0 0.0 16.290000149 0.0 0.0 0.0 29.1751946751" Properties=species:S:1:pos:R:3:initial_magmoms:R:1 pbc="T T T"
Si       1.36036162      -1.35143470      -1.35352481       0.00000000
Si       1.37370313       1.36474363       1.33164341       0.00000000
Si      -1.35451351       1.35079939      -1.36977539       0.00000000
Si      -1.35394336      -1.34760655       1.37391827       0.00000000
Si       0.00205254       2.72438849       2.65374653       0.00000000
Si       2.68433138      -2.71640639       0.03859878       0.00000000
Si      -2.71391402      -2.69374700       0.00636019       0.00000000
Si      -2.72365544       0.03955212       2.68519739       0.00000000
Si       0.00074934      -2.69576696      -2.71673578       0.00000000
Si       2.71634123       0.02554272      -2.71017136       0.00000000
