10
Lattice="16.290000149 0.0 0.0 0.0 16.290000149 0.0 0.0 0.0 29.1751946751" Properties=species:S:1:pos:R:3:initial_magmoms:R:1 pbc="T T T"
Si       1.72489925       0.93999817       1.27615715       0.00000000
Si      -0.86568319      -1.72789498       1.38241321       0.00000000
Si       0.73026442      -0.63399052      -2.17950754       0.00000000
Si      -1.70518835       1.66855214       0.12722340       0.00000000
H       -2.91779967      -0.94983733      -0.67292966       0.00000000
Si       0.46709946       2.34144317       2.64055263       0.00000000
Si      -2.36359757      -0.49205574       2.66235234       0.00000000
Si      -0.84336589      -2.32104483      -2.62232864       0.00000000
Si       2.97605271      -1.14007195      -1.90374360       0.00000000
Si      -2.35885718       2.09199440      -2.00419379       0.00000000
