10
Lattice="16.290000149 0.0 0.0 0.0 16.290000149 0.0 0.0 0.0 29.1751946751" Properties=species:S:1:pos:R:3:initial_magmoms:R:1 pbc="T T T"
Si       0.06972120       1.07527033       1.06107266       0.00000000
H        1.15420353       1.81219736      -1.92932645       0.00000000
Si      -2.46070226      -1.39031893      -1.03224756       0.00000000
H       -1.21132441      -2.16832282       1.73274399       0.00000000
Si      -0.46503063      -2.27488712      -2.00760350       0.00000000
Si      -1.55025415       0.40027788       2.62401701       0.00000000
Si       2.26652220       1.26231211       1.71917752       0.00000000
Si      -0.38250549       3.20869020       0.17289220       0.00000000
Si      -3.08516313      -0.31957722       1.01395472       0.00000000
Si       2.29179288       0.84624922      -2.21900696       0.00000000
