10
Lattice="16.290000149 0.0 0.0 0.0 16.290000149 0.0 0.0 0.0 29.1751946751" Properties=species:S:1:pos:R:3:initial_magmoms:R:1 pbc="T T T"
Si       1.34978941       1.39502883      -1.31085025       0.00000000
Si      -1.32401863       1.35174421       1.38465474       0.00000000
Si      -1.33714837      -1.32470281      -1.40490816       0.00000000
Si       1.38491065      -1.35677782       1.33949154       0.00000000
Si       2.67019166      -0.09389556      -2.51945311       0.00000000
Si       0.02116071      -2.71850780       2.66888846       0.00000000
Si       2.71054199       2.67754008       0.09934154       0.00000000
Si      -0.03313386       2.71940375      -2.67681536       0.00000000
Si      -2.71150310      -0.00759114       2.68872759       0.00000000
Si      -2.69449634       2.71244304       0.07109995       0.00000000
