10
Lattice="16.290000149 0.0 0.0 0.0 16.290000149 0.0 0.0 0.0 29.1751946751" Properties=species:S:1:pos:R:3:initial_magmoms:R:1 pbc="T T T"
Si       0.53440160      -0.67375441       2.22778869       0.00000000
Si      -2.00352341       1.36805050       0.07853962       0.00000000
Si       1.16086125       2.05729670      -0.58726749       0.00000000
Si      -1.21694446      -1.58711842      -1.41756436       0.00000000
Si       2.20291301      -1.41701824      -1.04814804       0.00000000
H       -1.01423170       1.11513196      -2.38693938       0.00000000
H       -2.66020589      -1.30184794      -0.97768995       0.00000000
H       -1.55418004       2.65528631      -0.57971112       0.00000000
Si       0.01102833       2.22856976      -2.61596466       0.00000000
H        3.39915288      -1.05054211      -0.15745853       0.00000000
