10
Lattice="16.290000149 0.0 0.0 0.0 16.290000149 0.0 0.0 0.0 29.1751946751" Properties=species:S:1:pos:R:3:initial_magmoms:R:1 pbc="T T T"
Si       1.34078104       1.36282141       1.36464056       0.00000000
Si      -1.35099976       1.35913987      -1.35976830       0.00000000
Si      -1.35877335      -1.35223291       1.36221901       0.00000000
Si       1.36881613      -1.35373159      -1.35168677       0.00000000
Si      -2.68137185       2.70860348       0.03142168       0.00000000
Si       2.70718625       0.00500103       2.69275377       0.00000000
Si       0.00869886      -2.70813107      -2.70535745       0.00000000
Si      -2.71086779      -2.70490565       0.00116701       0.00000000
Si       2.70901073       2.70671384       0.02182305       0.00000000
Si       2.71717202      -2.71441901       0.01385822       0.00000000
