10
Lattice="16.290000149 0.0 0.0 0.0 16.290000149 0.0 0.0 0.0 29.1751946751" Properties=species:S:1:pos:R:3:initial_magmoms:R:1 pbc="T T T"
Si       1.36855025      -1.35669637       1.34077525       0.00000000
Si       1.39844960       1.33463971      -1.33473598       0.00000000
Si      -1.35079939       1.36075258       1.36020593       0.00000000
Si      -1.35738055      -1.34809525      -1.36776230       0.00000000
Si       0.08156403       2.76984085      -2.61059642       0.00000000
Si       2.69892234      -2.70615998      -0.05041474       0.00000000
Si       0.02070459      -2.71019990       2.69850128       0.00000000
Si      -2.71031393      -0.00273672       2.70279003       0.00000000
Si       2.68271705       0.00982287       2.73508698       0.00000000
Si      -2.71096553       2.71389448       0.00770225       0.00000000
