10
Lattice="16.290000149 0.0 0.0 0.0 16.290000149 0.0 0.0 0.0 29.1751946751" Properties=species:S:1:pos:R:3:initial_magmoms:R:1 pbc="T T T"
Si       1.36640521      -1.35782038       1.32811321       0.00000000
Si       1.36822969       1.34389243      -1.34281751       0.00000000
Si      -1.34078104      -1.36282141      -1.36464056       0.00000000
Si      -1.31786101       1.36355446       1.39054813       0.00000000
Si      -0.01448181       2.68960934      -2.67851627       0.00000000
Si      -0.00957852      -2.68856678       2.68344688       0.00000000
Si       2.71766072       0.00433314       2.67308969       0.00000000
Si      -2.69955439      -2.71505432      -0.00242154       0.00000000
Si      -2.69178080      -0.00368154      -2.72440885       0.00000000
Si       2.71818200      -0.02130732      -2.69835541       0.00000000
