10
Lattice="16.290000149 0.0 0.0 0.0 16.290000149 0.0 0.0 0.0 29.1751946751" Properties=species:S:1:pos:R:3:initial_magmoms:R:1 pbc="T T T"
Si      -1.46449382       1.21259503       1.33636979       0.00000000
Si       1.17544731       1.52407612      -1.32682950       0.00000000
Si      -0.23436749      -1.85880305      -1.42894268       0.00000000
Si       1.43983402      -1.18522783       1.44440554       0.00000000
H       -2.94940878      -1.26081343      -1.42138631       0.00000000
Si       2.07551869      -2.03436038      -2.02965994       0.00000000
Si      -2.61528459      -0.42862248       2.51633137       0.00000000
Si       2.52813635       0.17096355      -2.65940652       0.00000000
Si       3.16033496      -1.94263139       0.06436048       0.00000000
Si      -0.00397313       2.59595813       2.68440966       0.00000000
