10
Lattice="16.290000149 0.0 0.0 0.0 16.290000149 0.0 0.0 0.0 29.1751946751" Properties=species:S:1:pos:R:3:initial_magmoms:R:1 pbc="T T T"
Si      -1.54202770      -1.31277853      -1.19034794       0.00000000
Si      -1.40538718       1.18359883       1.47159682       0.00000000
Si       1.39048183      -1.31020471       1.43340649       0.00000000
Si       0.78622057       1.50277206      -1.70409395       0.00000000
H        1.16541919      -2.09025137      -2.23829176       0.00000000
Si      -1.28252800       2.22321687      -2.55177923       0.00000000
Si      -0.18933867      -2.66589110      -2.52292496       0.00000000
Si      -2.56385217       0.23775255      -2.66909268       0.00000000
Si       0.04067613       2.62594314       2.74804076       0.00000000
H       -0.60364225       3.78173982       0.02415706       0.00000000
