10
Lattice="16.290000149 0.0 0.0 0.0 16.290000149 0.0 0.0 0.0 29.1751946751" Properties=species:S:1:pos:R:3:initial_magmoms:R:1 pbc="T T T"
Si      -1.24945930       1.35723394       1.40945365       0.00000000
Si       1.30292308      -1.38834784       1.33861628       0.00000000
Si       1.34926742       1.40605507      -1.30771975       0.00000000
Si      -1.38890170      -1.35801586      -1.33211021       0.00000000
H       -1.88758748       0.52690005       2.48391772       0.00000000
Si       2.64356077       0.02106297       2.59609635       0.00000000
Si      -2.82137916       2.44775171       0.08936362       0.00000000
Si      -0.09133803       2.75685447      -2.59402491       0.00000000
Si       2.68571929       0.04453686      -2.68341771       0.00000000
Si      -0.00822645      -2.70444953      -2.66900516       0.00000000
