10
Lattice="16.290000149 0.0 0.0 0.0 16.290000149 0.0 0.0 0.0 29.1751946751" Properties=species:S:1:pos:R:3:initial_magmoms:R:1 pbc="T T T"
Si       0.90135829      -0.74161855      -0.97804005       0.00000000
Si      -1.07846317       1.71442478       0.78712604       0.00000000
Si      -1.91298359      -0.28316907       1.87839531       0.00000000
Si      -1.32726034       2.22799961      -1.51156684       0.00000000
Si       2.30458591      -1.91213651       0.48206174       0.00000000
Si      -0.69283000      -1.87061330      -2.31753159       0.00000000
Si       2.05214906       0.89959897      -2.15800162       0.00000000
Si       0.86361436       2.56645694       1.84930764       0.00000000
Si      -0.48552345      -1.65029105       3.21282495       0.00000000
Si      -3.22206429      -1.72942787       0.50843612       0.00000000
