10
Lattice="16.290000149 0.0 0.0 0.0 16.290000149 0.0 0.0 0.0 29.1751946751" Properties=species:S:1:pos:R:3:initial_magmoms:R:1 pbc="T T T"
Si       1.32020514      -1.33654564      -1.40770314       0.00000000
Si      -1.34019460       1.36731745      -1.37397662       0.00000000
Si       1.39040853       1.37617921       1.31413829       0.00000000
Si      -1.35578413      -1.34672689       1.39410750       0.00000000
Si      -0.02904507       2.68341914       2.63364482       0.00000000
Si       2.64914498      -2.69610905      -0.04259578       0.00000000
Si      -2.69974172      -2.67305870      -0.01368317       0.00000000
Si      -2.72086985       2.71375112      -0.03708167       0.00000000
Si       2.67103874       0.02917539      -2.77117669       0.00000000
Si       0.03624574      -2.69985575       2.74687375       0.00000000
