10
Lattice="16.28999089631971 0.0 0.0 0.0 16.28999089631971 0.0 0.0 0.0 34.53561885213415" Properties=species:S:1:pos:R:3:initial_magmoms:R:1 pbc="T T T"
Si      -1.23226733       1.75913334       0.96817208       0.00000000
Si       2.19237026       0.40014756       0.77083544       0.00000000
Si      -0.56238995      -1.88261901       1.30641412       0.00000000
Si      -0.82845452      -0.02028105      -2.23977428       0.00000000
Si      -2.86735979      -1.20397761      -1.68582264       0.00000000
Si      -0.15471641      -0.87022809       3.47058988       0.00000000
Si      -2.78964020      -2.22830910       0.48173762       0.00000000
Si       0.24169978       3.59387441       0.82388218       0.00000000
Si       2.12978408      -0.28062783       3.07715990       0.00000000
Si      -1.41039848       1.16021682       3.31787329       0.00000000
