10
Lattice="16.28999089631971 0.0 0.0 0.0 16.28999089631971 0.0 0.0 0.0 34.53561885213415" Properties=species:S:1:pos:R:3:initial_magmoms:R:1 pbc="T T T"
Si      -1.79735715      -0.61125782      -1.35531455       0.00000000
Si       1.45394766      -1.23004949       1.36780467       0.00000000
Si       1.80608859       0.93770127      -1.20540636       0.00000000
Si      -1.27503459       1.50280137       1.36786338       0.00000000
Si      -2.64429054      -2.45328119      -0.03502604       0.00000000
Si       0.08827551      -2.58213509       2.74484072       0.00000000
Si      -2.63151918       0.14224265       2.74722368       0.00000000
Si       2.89393479      -2.47629896      -0.25324983       0.00000000
Si       2.74967055       2.70547578       0.10592080       0.00000000
Si      -2.64275928       2.80815165      -0.16506999       0.00000000
