10
Lattice="16.28999089631971 0.0 0.0 0.0 16.28999089631971 0.0 0.0 0.0 34.53561885213415" Properties=species:S:1:pos:R:3:initial_magmoms:R:1 pbc="T T T"
Si      -1.35689184      -1.35596820       1.35735419       0.00000000
Si       1.35749457      -1.35663283      -1.35700883       0.00000000
Si      -1.35765747       1.35816246      -1.35697429       0.00000000
Si       1.35896067       1.35694071       1.35797583       0.00000000
Si      -0.00120546       2.71322982      -2.71443209       0.00000000
Si       2.71440270       0.00127062      -2.71356870       0.00000000
Si       0.00008145      -2.71155596       2.71650423       0.00000000
Si       2.71422351      -2.71396576       0.00003454       0.00000000
Si       2.71487511      -0.00042354       2.71381045       0.00000000
Si      -2.71474479      -2.71400327       0.00037989       0.00000000
