10
Lattice="16.28999089631971 0.0 0.0 0.0 16.28999089631971 0.0 0.0 0.0 34.53561885213415" Properties=species:S:1:pos:R:3:initial_magmoms:R:1 pbc="T T T"
Si      -1.29572289       1.35714108       1.41886216       0.00000000
Si      -1.36272366      -1.34959304      -1.36298350       0.00000000
Si       1.35207000       1.36153938      -1.36567728       0.00000000
Si       1.34223084      -1.31198243       1.50361261       0.00000000
Si       0.58596759       2.29063953       2.64328867       0.00000000
Si      -2.19629925      -0.55586204       2.82967751       0.00000000
Si      -0.38625219      -2.34546908       2.85264371       0.00000000
Si       2.33333073       0.48521883       2.93269732       0.00000000
Si       2.70844056      -2.71445387       0.02831922       0.00000000
Si       2.70762606       0.00578784      -2.72237528       0.00000000
