10
Lattice="16.28999089631971 0.0 0.0 0.0 16.28999089631971 0.0 0.0 0.0 34.53561885213415" Properties=species:S:1:pos:R:3:initial_magmoms:R:1 pbc="T T T"
Si      -1.41063255       1.03391001       1.53932246       0.00000000
Si       1.91902716      -0.68909958       1.24545872       0.00000000
Si       0.62965737       1.90273716      -1.43623358       0.00000000
Si      -1.79714538      -1.41284799      -1.03023262       0.00000000
Si      -2.17039815      -2.72016219       0.93905854       0.00000000
Si      -1.02252330      -1.92921004       2.89370659       0.00000000
Si       2.60302797       2.60566695      -0.37115450       0.00000000
Si       3.40285068      -1.39693755      -0.53402457       0.00000000
Si       2.26981602       1.08001071       2.78930535       0.00000000
Si       1.31204547       0.76126428      -3.46016012       0.00000000
