10
Lattice="16.28999089631971 0.0 0.0 0.0 16.28999089631971 0.0 0.0 0.0 34.53561885213415" Properties=species:S:1:pos:R:3:initial_magmoms:R:1 pbc="T T T"
Si       1.50671097      -1.67177007      -0.63210579       0.00000000
Si      -2.33717517       0.38048227      -0.00006907       0.00000000
Si       0.60437529       1.62059273      -1.64831694       0.00000000
Si       0.75616551      -0.10660991       2.26733372       0.00000000
Si       0.95516415       3.38970302      -0.10447031       0.00000000
Si      -0.55198665       3.16011176       1.71845882       0.00000000
Si       3.56588100      -0.82343574       0.11852631       0.00000000
Si      -0.30336867      -1.96497378       3.24220571       0.00000000
Si       1.83436803      -1.46614140      -3.02438944       0.00000000
Si       3.10555818      -0.27459890       2.31181562       0.00000000
