10
Lattice="16.28999089631971 0.0 0.0 0.0 16.28999089631971 0.0 0.0 0.0 34.53561885213415" Properties=species:S:1:pos:R:3:initial_magmoms:R:1 pbc="T T T"
Si       0.29264985       0.62701839       2.21808590       0.00000000
Si      -0.51153858      -2.10674402      -0.89789206       0.00000000
Si      -1.77987798       1.48892229      -0.34870634       0.00000000
Si       1.86266376       0.65269143      -1.29097669       0.00000000
Si      -3.10335903       0.50933943       1.35676708       0.00000000
Si      -1.66788423      -1.26985763      -2.76423248       0.00000000
Si       1.03966038       2.82668967       1.74190852       0.00000000
Si      -0.42383322       3.46530654      -0.03267071       0.00000000
Si      -2.65900041       0.82819989      -2.41714931       0.00000000
Si       1.48892229      -3.08334581      -1.53200091       0.00000000
