10
Lattice="16.28999089631971 0.0 0.0 0.0 16.28999089631971 0.0 0.0 0.0 34.53561885213415" Properties=species:S:1:pos:R:3:initial_magmoms:R:1 pbc="T T T"
Si       2.12204943      -0.31110642       1.11066612       0.00000000
Si       0.35160336      -0.92984135      -2.23739132       0.00000000
Si      -1.79251902      -1.46422176       0.84885145       0.00000000
Si      -0.38411820       2.41870662       0.47479595       0.00000000
Si      -1.39711185       0.27795627      -3.11452746       0.00000000
Si       1.23237108       0.11660382       3.32763587       0.00000000
Si       1.89916965       3.26130687       0.21384467       0.00000000
Si      -1.52793684       3.25676196      -1.53244987       0.00000000
Si       3.35613096       1.69655463       1.16882414       0.00000000
Si      -0.95045634      -3.67188722       1.27999436       0.00000000
