10
Lattice="16.28999089631971 0.0 0.0 0.0 16.28999089631971 0.0 0.0 0.0 34.53561885213415" Properties=species:S:1:pos:R:3:initial_magmoms:R:1 pbc="T T T"
Si      -0.57855564       0.03186650       2.32887622       0.00000000
Si       0.84206268      -2.20766545       0.43114291       0.00000000
Si       1.79251902       1.46422176      -0.84885145       0.00000000
Si      -2.23506945       0.24609466      -1.20619170       0.00000000
Si      -1.31209434      -3.32164081       0.26450845       0.00000000
Si       2.14412238       0.53438042      -3.08624277       0.00000000
Si      -2.49684975       1.54730076       2.45564381       0.00000000
Si       2.15792001      -2.83525399      -1.53093030       0.00000000
Si      -1.77587064       1.97665629      -2.82643116       0.00000000
Si       1.21880151       0.64312431       3.68419077       0.00000000
