10
Lattice="16.28999089631971 0.0 0.0 0.0 16.28999089631971 0.0 0.0 0.0 34.53561885213415" Properties=species:S:1:pos:R:3:initial_magmoms:R:1 pbc="T T T"
Si       1.35309627      -1.36052451       1.36170568       0.00000000
Si      -1.36120869       1.35687555       1.36205103       0.00000000
Si       1.34667801       1.35006633      -1.38722751       0.00000000
Si      -1.36744776      -1.37155284      -1.38629850       0.00000000
Si       2.71231758       2.71524978       0.00162317       0.00000000
Si      -2.71410785      -2.71448415       0.00107060       0.00000000
Si       2.71142163      -0.00040725       2.71878358       0.00000000
Si      -2.71804351       2.71334385       0.00155410       0.00000000
Si       2.71340901      -2.71823085       0.00638909       0.00000000
Si      -0.00333945       2.71459818       2.71861090       0.00000000
