10
Lattice="16.28999089631971 0.0 0.0 0.0 16.28999089631971 0.0 0.0 0.0 34.53561885213415" Properties=species:S:1:pos:R:3:initial_magmoms:R:1 pbc="T T T"
Si       1.37088495      -1.23329961       1.50391998       0.00000000
Si       1.66671135       1.19340540      -1.22987075       0.00000000
Si      -1.11366585      -1.44467865      -1.60133608       0.00000000
Si      -1.34257293       1.47913200       1.48222815       0.00000000
Si      -2.70257616      -2.63248029      -0.03852105       0.00000000
Si      -2.62803312      -0.05776434      -2.76701747       0.00000000
Si       2.68985367      -2.73515616       0.23246974       0.00000000
Si       0.52831728       2.54260836      -2.84969579       0.00000000
Si       0.02415807      -2.58916518       2.87584475       0.00000000
Si      -2.79059103       2.73113253      -0.01955753       0.00000000
