10
Lattice="16.28999089631971 0.0 0.0 0.0 16.28999089631971 0.0 0.0 0.0 34.53561885213415" Properties=species:S:1:pos:R:3:initial_magmoms:R:1 pbc="T T T"
Si       1.35591444      -1.35736425       1.35583462       0.00000000
Si       1.35628911       1.35860229      -1.35811397       0.00000000
Si      -1.35896067      -1.35694071      -1.35797583       0.00000000
Si      -1.35878148       1.35821133       1.36077321       0.00000000
Si       2.71147050      -2.71311579      -0.00086339       0.00000000
Si       2.71322982       0.00117288      -2.71453569       0.00000000
Si      -0.00146610      -2.71357354      -2.71498466       0.00000000
Si      -2.71585251      -2.71290891      -0.00062164       0.00000000
Si       2.71482624       2.71417464      -0.00055257       0.00000000
Si      -2.71661814       0.00122175      -2.71495012       0.00000000
