10
Lattice="16.28999089631971 0.0 0.0 0.0 16.28999089631971 0.0 0.0 0.0 34.53561885213415" Properties=species:S:1:pos:R:3:initial_magmoms:R:1 pbc="T T T"
Si      -0.76111767      -2.18893617      -0.01764771       0.00000000
Si       2.21390874       0.22141368      -0.76064743       0.00000000
Si       0.11461644       0.98574048       2.15084501       0.00000000
Si      -0.92509281       1.56454047      -1.59392331       0.00000000
Si       1.09242369       2.91305925       1.25516323       0.00000000
Si      -0.87583185       3.34951722      -0.04676125       0.00000000
Si      -2.49961905      -1.99803366      -1.53759568       0.00000000
Si       2.06799921      -0.15951168      -3.08738244       0.00000000
Si       2.92514643       2.44944585      -0.10571359       0.00000000
Si       0.58937220       1.64755431      -3.48157222       0.00000000
