10
Lattice="16.28999089631971 0.0 0.0 0.0 16.28999089631971 0.0 0.0 0.0 34.53561885213415" Properties=species:S:1:pos:R:3:initial_magmoms:R:1 pbc="T T T"
Si      -1.38779397       1.80198351       0.56127319       0.00000000
Si       1.11246039       0.60087294      -1.99201561       0.00000000
Si       1.46349360      -0.63861687       1.77457923       0.00000000
Si      -1.35604476      -1.97638425      -0.31603562       0.00000000
Si       0.42383322      -3.46530654       0.03267071       0.00000000
Si      -0.62604099       0.79177545      -3.51196358       0.00000000
Si       0.71648307      -2.83828815       2.25075661       0.00000000
Si       1.66413753      -1.42356681      -3.02307709       0.00000000
Si       2.28649698      -2.81261511      -1.25830598       0.00000000
Si       0.58565808       0.14051754       3.83283419       0.00000000
