10
Lattice="16.28999089631971 0.0 0.0 0.0 16.28999089631971 0.0 0.0 0.0 34.53561885213415" Properties=species:S:1:pos:R:3:initial_magmoms:R:1 pbc="T T T"
Si      -0.41515065      -2.26667205       0.19326143       0.00000000
Si      -1.77230313       0.77343291      -1.28645252       0.00000000
Si      -0.70960869       0.58303539       2.23069140       0.00000000
Si       1.87766685       0.33563916      -1.53655961       0.00000000
Si      -0.78288111       2.50719390      -2.44446700       0.00000000
Si       0.46268487      -3.04580646      -1.86499353       0.00000000
Si       2.60325603      -1.89472248      -1.94135183       0.00000000
Si       1.12720284       1.63870884       3.28250880       0.00000000
Si      -3.42619425       1.74008151       0.03052950       0.00000000
Si       0.98738577       1.36836000      -3.46309565       0.00000000
