10
Lattice="16.28999089631971 0.0 0.0 0.0 16.28999089631971 0.0 0.0 0.0 34.53561885213415" Properties=species:S:1:pos:R:3:initial_magmoms:R:1 pbc="T T T"
Si       1.35695700       1.35697329      -1.35749233       0.00000000
Si      -1.35786924      -1.35772263      -1.35655987       0.00000000
Si       1.35726651      -1.35713619       1.35825211       0.00000000
Si      -1.35744570       1.35713619       1.35825211       0.00000000
Si      -0.00079821       2.71394658       2.71529548       0.00000000
Si       2.71476108      -2.71500543       0.00017268       0.00000000
Si      -2.71475945       2.71503801       0.00041443       0.00000000
Si       2.71533123       2.71463076       0.00051803       0.00000000
Si      -2.71521557      -2.71485882       0.00044896       0.00000000
Si       2.71451673      -0.00001629       2.71591712       0.00000000
