10
Lattice="16.28999089631971 0.0 0.0 0.0 16.28999089631971 0.0 0.0 0.0 34.53561885213415" Properties=species:S:1:pos:R:3:initial_magmoms:R:1 pbc="T T T"
Si       1.35725022       1.35711990       1.35766501       0.00000000
Si      -1.35726651       1.35713619      -1.35825211       0.00000000
Si       1.35749457      -1.35786924      -1.35807943       0.00000000
Si      -1.35811359      -1.35822762       1.35859747       0.00000000
Si      -2.71471221       2.71427238       0.00000000       0.00000000
Si       2.71410948      -0.00143352      -2.71501919       0.00000000
Si       2.71523349       2.71459818      -0.00006907       0.00000000
Si      -0.00030951       2.71410948      -2.71574444       0.00000000
Si      -2.71513575      -0.00058644      -2.71481198       0.00000000
Si      -2.71508688      -2.71547784      -0.00024175       0.00000000
