10
Lattice="16.28999089631971 0.0 0.0 0.0 16.28999089631971 0.0 0.0 0.0 34.53561885213415" Properties=species:S:1:pos:R:3:initial_magmoms:R:1 pbc="T T T"
Si      -1.23515667       1.34325711      -1.43654440       0.00000000
Si      -1.67832612      -1.01328687       1.39365114       0.00000000
Si       1.03037508       1.64603934       1.45581529       0.00000000
Si       1.47618351      -1.36580247      -1.42221211       0.00000000
Si      -0.03951954      -1.51886331       2.99731350       0.00000000
Si       1.68349005       0.10915929       3.20338765       0.00000000
Si      -2.54177757       2.66434353       0.10336516       0.00000000
Si      -2.58170436      -0.01736514      -2.79821555       0.00000000
Si       2.87608095       2.51519229       0.10560998       0.00000000
Si      -2.60426601      -2.81777904       0.06067912       0.00000000
