10
Lattice="16.28999089631971 0.0 0.0 0.0 16.28999089631971 0.0 0.0 0.0 34.53561885213415" Properties=species:S:1:pos:R:3:initial_magmoms:R:1 pbc="T T T"
Si       0.76038462      -1.47395178      -1.67017800       0.00000000
Si      -2.26768203      -0.35510571       0.69426993       0.00000000
Si       1.40848227      -0.15749172       1.97219215       0.00000000
Si       1.83827763       2.40065730      -1.20449945       0.00000000
Si       2.47044366       1.82764026       1.28589995       0.00000000
Si      -2.12446035      -2.60079624       0.05605134       0.00000000
Si       0.10726965       0.06292827      -3.41775036       0.00000000
Si      -0.96262497      -3.10197438      -1.87625215       0.00000000
Si      -0.10598274      -0.24050556       3.85984106       0.00000000
Si      -3.68927775       1.05588522      -0.63776963       0.00000000
