10
Lattice="16.28999089631971 0.0 0.0 0.0 16.28999089631971 0.0 0.0 0.0 34.53561885213415" Properties=species:S:1:pos:R:3:initial_magmoms:R:1 pbc="T T T"
Si       0.20544948       2.01523590      -1.15428463       0.00000000
Si      -0.04926096      -1.78497675      -1.54716205       0.00000000
Si       1.96825554      -0.43645797       1.30192449       0.00000000
Si      -1.95089040      -0.46397178       1.36426131       0.00000000
Si       0.99044829      -2.36377674       2.19760626       0.00000000
Si       0.87583185      -3.34951722       0.04676125       0.00000000
Si      -0.77981859      -1.22494284       3.21623491       0.00000000
Si       2.26199682       1.84073742      -2.34838886       0.00000000
Si      -2.32424091      -1.78836507      -2.33170815       0.00000000
Si       0.91500930       3.60201222       0.52179896       0.00000000
