10
Lattice="16.28999089631971 0.0 0.0 0.0 16.28999089631971 0.0 0.0 0.0 34.53561885213415" Properties=species:S:1:pos:R:3:initial_magmoms:R:1 pbc="T T T"
Si      -0.46493289       2.29148172      -0.36096649       0.00000000
Si       2.23581879       0.08895969       0.78306106       0.00000000
Si      -1.45900570      -1.37371941       1.27070427       0.00000000
Si      -0.29372499      -1.32931287      -1.99964798       0.00000000
Si       1.84930596      -2.35779831      -1.78649403       0.00000000
Si      -1.58695062       2.14312869      -2.50445541       0.00000000
Si      -0.90454135      -3.58256848       0.51806911       0.00000000
Si      -3.62583539      -0.66305187       0.69423540       0.00000000
Si       1.67498667       3.32309484      -0.49303077       0.00000000
Si       2.13920280      -0.33350517       3.07705629       0.00000000
