10
Lattice="16.28999089631971 0.0 0.0 0.0 16.28999089631971 0.0 0.0 0.0 34.53561885213415" Properties=species:S:1:pos:R:3:initial_magmoms:R:1 pbc="T T T"
Si       1.35045729      -1.35278676       1.36091136       0.00000000
Si      -1.36405944       1.36365369       1.35946086       0.00000000
Si      -1.37373570      -1.34491869      -1.37462201       0.00000000
Si       1.36567215       1.35208559      -1.37703605       0.00000000
Si      -0.08827551       2.58213509      -2.74484072       0.00000000
Si       2.70734913      -2.70545949       0.00124328       0.00000000
Si       2.70897813       0.00553860       2.71664237       0.00000000
Si      -0.00571779      -2.70892926       2.71719494       0.00000000
Si      -2.72187981      -2.70718623      -0.00058711       0.00000000
Si       2.70853830       2.72323907       0.00096700       0.00000000
