10
Lattice="16.28999089631971 0.0 0.0 0.0 16.28999089631971 0.0 0.0 0.0 34.53561885213415" Properties=species:S:1:pos:R:3:initial_magmoms:R:1 pbc="T T T"
Si      -0.84374055       2.21059993       0.26806562       0.00000000
Si      -1.34936586      -1.15852851      -1.75375424       0.00000000
Si      -0.43577379      -0.80518212       2.34928679       0.00000000
Si       2.14386174       0.07353306      -1.48420359       0.00000000
Si       0.30413430       3.00155209       2.22271367       0.00000000
Si      -1.94546583       0.73466271       3.30968835       0.00000000
Si      -0.47048778       3.51791414      -1.70122554       0.00000000
Si      -3.22433509       2.29314397       0.60333760       0.00000000
Si      -3.57392174      -0.10109574      -1.97661271       0.00000000
Si       1.62838098      -0.93068028       3.78890486       0.00000000
