10
Lattice="16.28999089631971 0.0 0.0 0.0 16.28999089631971 0.0 0.0 0.0 34.53561885213415" Properties=species:S:1:pos:R:3:initial_magmoms:R:1 pbc="T T T"
Si       2.00046087      -0.97660179      -0.63410885       0.00000000
Si      -1.33574742      -1.36226754       1.33328285       0.00000000
Si       0.51153858       2.10674402       0.89789206       0.00000000
Si      -1.15634565       0.83688639      -1.86634042       0.00000000
Si       3.05999505       0.88176208      -1.60898085       0.00000000
Si      -2.86106157       0.22748985       2.22951719       0.00000000
Si       2.37420234       2.75943545      -0.39308463       0.00000000
Si       1.29090105      -2.56337811      -2.31019244       0.00000000
Si      -2.28294576      -0.89803512      -2.78940896       0.00000000
Si       3.17374812      -1.39240404       1.49767248       0.00000000
