10
Lattice="16.28999089631971 0.0 0.0 0.0 16.28999089631971 0.0 0.0 0.0 34.53561885213415" Properties=species:S:1:pos:R:3:initial_magmoms:R:1 pbc="T T T"
Si       1.01670777      -2.15832726      -0.25128130       0.00000000
Si       2.15415702       1.11397536       0.16663445       0.00000000
Si      -1.53547911       0.29133036       1.95488980       0.00000000
Si      -0.68352840      -0.03544704      -2.42688836       0.00000000
Si       1.31209434       3.32164081      -0.26450845       0.00000000
Si      -0.11339469       1.51148394       3.38465628       0.00000000
Si       1.57061664      -3.01171149       1.92646697       0.00000000
Si      -2.02033467       1.87677090      -2.80802367       0.00000000
Si       3.47001435       0.48638682      -1.79543876       0.00000000
Si      -3.31994272       1.79212806       1.22528991       0.00000000
