10
Lattice="16.28999089631971 0.0 0.0 0.0 16.28999089631971 0.0 0.0 0.0 34.53561885213415" Properties=species:S:1:pos:R:3:initial_magmoms:R:1 pbc="T T T"
Si      -1.35555606       1.35575154       1.35669801       0.00000000
Si      -1.35620766      -1.35779068      -1.35707790       0.00000000
Si       1.35940050       1.35684297      -1.35731965       0.00000000
Si       1.35834165      -1.35655790       1.36263814       0.00000000
Si      -2.71147050       2.71311579       0.00086339       0.00000000
Si      -2.71293660      -0.00045775      -2.71412127       0.00000000
Si       0.00175932       2.71428867      -2.71367230       0.00000000
Si      -2.71350675      -2.71603889      -0.00017268       0.00000000
Si      -2.70762606      -0.00578784       2.72237528       0.00000000
Si       2.71674846       0.00004887      -2.71394859       0.00000000
