10
Lattice="16.28999089631971 0.0 0.0 0.0 16.28999089631971 0.0 0.0 0.0 34.53561885213415" Properties=species:S:1:pos:R:3:initial_magmoms:R:1 pbc="T T T"
Si      -1.35834165       1.35655790      -1.36263814       0.00000000
Si       1.35930276      -1.36005114      -1.36212010       0.00000000
Si       1.35552348       1.35713619       1.37403490       0.00000000
Si      -1.35752715      -1.36368381       1.38805637       0.00000000
Si       2.64051126      -0.14975301       2.70275904       0.00000000
Si      -2.71389771       2.71230943      -0.00594013       0.00000000
Si       2.71829601       2.71072930      -0.00103607       0.00000000
Si      -2.71524978      -2.71785522      -0.00162317       0.00000000
Si       0.00105885       2.71340087      -2.71995779       0.00000000
Si      -2.71454931      -0.00123278      -2.71971604       0.00000000
