10
Lattice="16.28999089631971 0.0 0.0 0.0 16.28999089631971 0.0 0.0 0.0 34.53561885213415" Properties=species:S:1:pos:R:3:initial_magmoms:R:1 pbc="T T T"
Si       1.23408153       2.00766105       0.05815801       0.00000000
Si      -2.12204943       0.31110642      -1.11066612       0.00000000
Si       1.55895300      -1.77898922      -0.52794630       0.00000000
Si      -0.88967835       0.42771024       2.21696974       0.00000000
Si       2.11434426      -2.25941390       1.81173958       0.00000000
Si      -0.22287978       3.57241329      -0.89682145       0.00000000
Si      -2.50616763       2.72981304      -0.63587017       0.00000000
Si      -1.77044607      -0.61873493      -3.34805744       0.00000000
Si       0.45315522      -3.87463256      -0.96882826       0.00000000
Si      -3.91456845      -1.15311534      -0.26181467       0.00000000
