10
Lattice="16.28999089631971 0.0 0.0 0.0 16.28999089631971 0.0 0.0 0.0 34.53561885213415" Properties=species:S:1:pos:R:3:initial_magmoms:R:1 pbc="T T T"
Si       1.38968361      -1.22274369       1.34521836       0.00000000
Si      -1.31898501       1.49534055       1.30808564       0.00000000
Si       1.72848303       0.83903274      -1.43853162       0.00000000
Si      -1.05547797      -1.79128098      -1.24181797       0.00000000
Si      -2.00828007      -0.06827139      -2.61042943       0.00000000
Si       0.30822309       0.09438426      -3.33840615       0.00000000
Si       2.63145402      -2.56367133      -0.05999186       0.00000000
Si       0.03248226      -2.57183262       2.67077559       0.00000000
Si      -2.68745904       0.14509503       2.66611328       0.00000000
Si       2.64512133       2.74802526      -0.14662451       0.00000000
