10
Lattice="16.28999089631971 0.0 0.0 0.0 16.28999089631971 0.0 0.0 0.0 34.53561885213415" Properties=species:S:1:pos:R:3:initial_magmoms:R:1 pbc="T T T"
Si      -1.35803214      -1.35666378       1.35797583       0.00000000
Si       1.35729909       1.35821133       1.35776861       0.00000000
Si       1.36194174      -1.35782037      -1.35586915       0.00000000
Si      -1.35799956       1.35910728      -1.36053147       0.00000000
Si       2.71914309      -0.00873144      -2.68142638       0.00000000
Si       0.01047447       2.70935280      -2.71855910       0.00000000
Si       2.71358820       2.71440270       0.00048350       0.00000000
Si      -0.00039096      -2.71410948       2.71432848       0.00000000
Si       2.71445157       0.00140094       2.71463930       0.00000000
Si       2.71507059      -2.71406061       0.00117421       0.00000000
