10
Lattice="16.28999089631971 0.0 0.0 0.0 16.28999089631971 0.0 0.0 0.0 34.53561885213415" Properties=species:S:1:pos:R:3:initial_magmoms:R:1 pbc="T T T"
Si       0.81275697       1.71180207      -1.34084615       0.00000000
Si       1.50889383      -1.85909625       0.33989975       0.00000000
Si      -0.04153950       1.17419949       2.13060712       0.00000000
Si      -1.89633519      -0.91054584      -1.24224690       0.00000000
Si       2.11884030       0.37739043      -2.65509986       0.00000000
Si       0.78227838      -1.97514621       2.83485786       0.00000000
Si      -1.43470917      -0.90992682       3.11470013       0.00000000
Si      -0.59766381      -2.32021728      -2.62356882       0.00000000
Si       3.24640152      -1.07468388      -1.23091922       0.00000000
Si       2.44232712       2.73657339      -0.07760158       0.00000000
