10
Lattice="16.28999089631971 0.0 0.0 0.0 16.28999089631971 0.0 0.0 0.0 34.53561885213415" Properties=species:S:1:pos:R:3:initial_magmoms:R:1 pbc="T T T"
Si      -1.22473107      -0.35215722      -1.99826656       0.00000000
Si      -0.23633532       2.24476200       0.82547082       0.00000000
Si      -0.45919881      -1.73056163       1.62023946       0.00000000
Si       2.17127781      -0.23447826      -1.13694774       0.00000000
Si       2.04045282       2.74432743       0.44512984       0.00000000
Si      -1.49397219      -2.74075082      -2.02340850       0.00000000
Si       0.09874998       0.62742564      -3.70373998       0.00000000
Si      -1.55655837      -3.42152621       0.28291595       0.00000000
Si       2.91828834       1.96519302      -1.61312512       0.00000000
Si       1.77587064      -1.97665629       2.82643116       0.00000000
