10
Lattice="16.28999089631971 0.0 0.0 0.0 16.28999089631971 0.0 0.0 0.0 34.53561885213415" Properties=species:S:1:pos:R:3:initial_magmoms:R:1 pbc="T T T"
Si       0.95280210      -1.72300959       1.36861146       0.00000000
Si      -1.00338255      -1.27405719      -1.78663217       0.00000000
Si       2.31650316       0.16265565      -0.72797672       0.00000000
Si      -1.74974148       1.27757583       1.17614569       0.00000000
Si       0.45357876      -2.83880943      -0.83165270       0.00000000
Si       2.00828007       0.06827139       2.61042943       0.00000000
Si       1.95672222       1.89425007      -2.16869993       0.00000000
Si       2.47508631      -2.04978699      -1.67884644       0.00000000
Si      -0.72659916      -2.65098573       2.63848619       0.00000000
Si      -0.65243079       2.87345826       2.52155888       0.00000000
