10
Lattice="16.28999089631971 0.0 0.0 0.0 16.28999089631971 0.0 0.0 0.0 34.53561885213415" Properties=species:S:1:pos:R:3:initial_magmoms:R:1 pbc="T T T"
Si      -1.47396711      -1.83474107       0.14428990       0.00000000
Si       2.21991161      -0.80513325      -0.02790480       0.00000000
Si      -0.23084038       0.93195090       2.17021950       0.00000000
Si      -0.28549758       1.91492208      -1.41468335       0.00000000
Si      -2.19463671       2.77726581      -0.24592828       0.00000000
Si       1.30400636       3.29538555      -0.33268180       0.00000000
Si      -2.26686657       2.03354586       1.95544237       0.00000000
Si      -0.24169978      -3.59387441      -0.82388218       0.00000000
Si       1.19161187       2.86681194       2.02033483       0.00000000
Si       1.95067049      -3.19372685      -0.05304674       0.00000000
