10
Lattice="16.28999089631971 0.0 0.0 0.0 16.28999089631971 0.0 0.0 0.0 34.53561885213415" Properties=species:S:1:pos:R:3:initial_magmoms:R:1 pbc="T T T"
Si      -1.35503478      -1.35518139      -1.35780315       0.00000000
Si      -1.35070164       1.36166481       1.35835572       0.00000000
Si       1.36058967      -1.35562122       1.35887375       0.00000000
Si       1.36016613       1.35992178      -1.35707790       0.00000000
Si       0.00861741      -2.72515410       2.68435155       0.00000000
Si      -2.71090035      -2.71443528      -0.00020721       0.00000000
Si       0.00283446      -2.71256193      -2.71439755       0.00000000
Si      -2.71293660       0.00301365      -2.71481198       0.00000000
Si       2.71746522      -2.71230129      -0.00041443       0.00000000
Si      -2.70848943      -0.01231524       2.72137375       0.00000000
