10
Lattice="16.28999089631971 0.0 0.0 0.0 16.28999089631971 0.0 0.0 0.0 34.53561885213415" Properties=species:S:1:pos:R:3:initial_magmoms:R:1 pbc="T T T"
Si      -2.21991161       0.80513325       0.02790480       0.00000000
Si       1.22473107       0.35215722       1.99826656       0.00000000
Si       1.32348105       0.97958286      -1.70547342       0.00000000
Si      -0.26924112      -2.38859360      -0.02514194       0.00000000
Si       3.10335903      -0.50933943      -1.35676708       0.00000000
Si       3.39600888       0.11767896       0.86131882       0.00000000
Si      -2.45075198       1.73708415       2.19812430       0.00000000
Si      -2.46161138      -2.78874116      -0.79597739       0.00000000
Si       0.44435862       0.31886046      -3.77391639       0.00000000
Si      -3.69387872      -1.02960782       0.17219469       0.00000000
