10
Lattice="16.28999089631971 0.0 0.0 0.0 16.28999089631971 0.0 0.0 0.0 34.53561885213415" Properties=species:S:1:pos:R:3:initial_magmoms:R:1 pbc="T T T"
Si      -1.18710117      -1.48323708       1.39801096       0.00000000
Si       0.26842662      -0.57914208      -2.29630912       0.00000000
Si       1.45402911       1.26208404       1.42733172       0.00000000
Si      -1.20448260       1.79478333      -1.09619569       0.00000000
Si      -2.56360617      -0.07558560       2.78519703       0.00000000
Si      -2.28441186      -3.07911951       0.05259778       0.00000000
Si       0.12660588       2.65093686       2.77777532       0.00000000
Si       0.15462468      -2.79308340       2.79496716       0.00000000
Si       2.55236607       3.03415911       0.25835286       0.00000000
Si      -1.80012645      -0.81896346      -3.45573956       0.00000000
