10
Lattice="16.28999089631971 0.0 0.0 0.0 16.28999089631971 0.0 0.0 0.0 34.53561885213415" Properties=species:S:1:pos:R:3:initial_magmoms:R:1 pbc="T T T"
Si       1.35744570       1.35672894      -1.35728512       0.00000000
Si      -1.35757602      -1.35782037      -1.35673254       0.00000000
Si      -1.35891180       1.35576783       1.36073868       0.00000000
Si       1.36155078      -1.35641943       1.35859747       0.00000000
Si      -0.00004887       2.71381626      -2.71495012       0.00000000
Si      -2.71474479      -0.00065160      -2.71439755       0.00000000
Si       2.71564074       2.71357191       0.00024175       0.00000000
Si      -0.00068418      -2.71507059      -2.71457023       0.00000000
Si      -2.71551042       2.71414206      -0.00044896       0.00000000
Si       2.70027927      -0.00503361       2.72931695       0.00000000
