10
Lattice="16.28999089631971 0.0 0.0 0.0 16.28999089631971 0.0 0.0 0.0 34.53561885213415" Properties=species:S:1:pos:R:3:initial_magmoms:R:1 pbc="T T T"
Si      -0.32765706      -0.20562867       2.39228365       0.00000000
Si       0.25383078       2.37889616      -0.40341079       0.00000000
Si       2.39117652      -0.72762543      -0.78603112       0.00000000
Si      -2.33181576      -1.08139536      -0.68259689       0.00000000
Si      -1.15774659      -3.24465849      -0.86670638       0.00000000
Si      -1.22999274       3.08673413       1.37607250       0.00000000
Si       1.73151297       0.64270566       3.14291575       0.00000000
Si      -1.83436803       1.46614140       3.02438944       0.00000000
Si       3.74689548       1.18020954       0.02331156       0.00000000
Si       2.93599557      -2.35846620       1.13725856       0.00000000
