10
Lattice="16.28999089631971 0.0 0.0 0.0 16.28999089631971 0.0 0.0 0.0 34.53561885213415" Properties=species:S:1:pos:R:3:initial_magmoms:R:1 pbc="T T T"
Si      -0.55539126       0.48042468      -2.33968588       0.00000000
Si      -1.91617641      -0.72687609       1.35738669       0.00000000
Si       0.71065125       1.84663833       1.46873649       0.00000000
Si       1.75319496      -1.79325207       0.45997192       0.00000000
Si      -2.11434426       2.25941390      -1.81173958       0.00000000
Si      -1.66118904      -1.61521866      -2.78056783       0.00000000
Si       2.07936963       0.54448542       2.97094351       0.00000000
Si      -2.00365371      -3.03262785      -0.89457664       0.00000000
Si      -0.67256523      -2.17647432       2.97939438       0.00000000
Si       0.65485800      -3.56532714       1.62895077       0.00000000
