10
Lattice="16.28999089631971 0.0 0.0 0.0 16.28999089631971 0.0 0.0 0.0 34.53561885213415" Properties=species:S:1:pos:R:3:initial_magmoms:R:1 pbc="T T T"
Si       1.68876801       0.94249053       1.31046291       0.00000000
Si      -0.90647334      -1.82135558       1.15069068       0.00000000
Si       1.40760261       0.53366040      -1.81447501       0.00000000
Si      -1.99816398       1.71488088       0.12863679       0.00000000
Si      -0.47587977       1.38810348      -2.91882111       0.00000000
Si      -2.49738732       0.59908104      -2.07162737       0.00000000
Si      -2.25388440      -0.45543582       2.68698092       0.00000000
Si       2.44568286       2.56127670      -0.22635369       0.00000000
Si       0.44699760       2.28341817       2.71567313       0.00000000
Si      -0.94268601       3.50616186       1.37045476       0.00000000
