10
Lattice="16.28999089631971 0.0 0.0 0.0 16.28999089631971 0.0 0.0 0.0 34.53561885213415" Properties=species:S:1:pos:R:3:initial_magmoms:R:1 pbc="T T T"
Si      -1.09312416       1.56507804      -1.40231959       0.00000000
Si      -1.93388364      -0.74912823       1.20360153       0.00000000
Si       1.60651558      -1.18467396      -1.39465268       0.00000000
Si       0.63706836       0.28918008       2.36334279       0.00000000
Si       2.62325105       1.49547087       2.15195015       0.00000000
Si       1.09500958      -1.98509940       2.93621996       0.00000000
Si      -2.45302965       0.18933867      -2.78201833       0.00000000
Si      -2.67744069      -2.63226852      -0.03235989       0.00000000
Si       0.26134047      -2.52051912      -2.78333069       0.00000000
Si      -3.48151509       1.17898875       1.12095774       0.00000000
