10
Lattice="16.28999089631971 0.0 0.0 0.0 16.28999089631971 0.0 0.0 0.0 34.53561885213415" Properties=species:S:1:pos:R:3:initial_magmoms:R:1 pbc="T T T"
Si      -0.74355705      -1.88314029      -1.23596142       0.00000000
Si       1.93388364       0.74912823      -1.20360153       0.00000000
Si      -1.54763145       1.92811698      -0.08264378       0.00000000
Si       0.71793288      -1.81030770       1.62452188       0.00000000
Si       2.57095200       1.03830831       1.15974126       0.00000000
Si      -1.87111827      -0.43106598      -2.66014206       0.00000000
Si       0.02003670      -0.65853954       3.49479937       0.00000000
Si      -3.17720160       0.90334566      -1.34588835       0.00000000
Si       0.84075948       2.31420627      -2.60592111       0.00000000
Si       1.01325429       1.55261619       3.14923577       0.00000000
