10
Lattice="16.28999089631971 0.0 0.0 0.0 16.28999089631971 0.0 0.0 0.0 34.53561885213415" Properties=species:S:1:pos:R:3:initial_magmoms:R:1 pbc="T T T"
Si       2.10479832       0.70911999       0.64522933       0.00000000
Si       0.04106709      -2.14053858      -0.98809914       0.00000000
Si      -1.66008132       0.26689536       1.65398078       0.00000000
Si       0.02787219       1.69067394      -1.70205439       0.00000000
Si      -2.32683102      -2.00704203      -1.30886615       0.00000000
Si       3.20833572      -0.85041945      -0.70777337       0.00000000
Si      -0.29781378       3.41461206      -0.11079033       0.00000000
Si      -1.94473278       2.57637753       1.41544313       0.00000000
Si       2.12949396      -2.81610117       0.12087473       0.00000000
Si      -3.30590889      -1.15096995       0.72165669       0.00000000
