10
Lattice="16.28999089631971 0.0 0.0 0.0 16.28999089631971 0.0 0.0 0.0 34.53561885213415" Properties=species:S:1:pos:R:3:initial_magmoms:R:1 pbc="T T T"
Si      -1.35715248       1.35749457       1.35749233       0.00000000
Si       1.35850408       1.35710361      -1.35683615       0.00000000
Si       1.35803755      -1.35739683       1.35714697       0.00000000
Si      -1.35819504      -1.35879777      -1.35711244       0.00000000
Si      -2.71295289       0.00073305      -2.71353416       0.00000000
Si       0.00065160      -2.71406061      -2.71415580       0.00000000
Si       2.71378924      -0.00042354       2.71443209       0.00000000
Si      -0.00161271       2.71363707       2.71477744       0.00000000
Si       0.00014661      -2.71472850       2.71415580       0.00000000
Si      -2.71448415      -2.71498914       0.00017268       0.00000000
