10
Lattice="16.28999089631971 0.0 0.0 0.0 16.28999089631971 0.0 0.0 0.0 34.53561885213415" Properties=species:S:1:pos:R:3:initial_magmoms:R:1 pbc="T T T"
Si      -1.01960739      -1.79385480       1.08131083       0.00000000
Si      -1.36368477       1.28516697      -1.45146380       0.00000000
Si       0.67463406       1.80385686       1.40774168       0.00000000
Si       1.36878354      -1.40776551      -1.44196650       0.00000000
Si       2.54203821       2.62384659       0.03084032       0.00000000
Si      -2.81074176       2.48635899       0.06009201       0.00000000
Si      -2.43584370      -1.07577531       2.77669984       0.00000000
Si       2.46190770      -2.97284355      -0.03964691       0.00000000
Si       0.01104462       2.64720645      -2.82504974       0.00000000
Si      -2.64917754      -2.81862612      -0.18193374       0.00000000
