10
Lattice="16.28999089631971 0.0 0.0 0.0 16.28999089631971 0.0 0.0 0.0 34.53561885213415" Properties=species:S:1:pos:R:3:initial_magmoms:R:1 pbc="T T T"
Si       1.08220779      -1.52972874       1.56505151       0.00000000
Si      -1.94559615      -1.14911289      -0.95326235       0.00000000
Si      -1.61942148       1.18862460       1.55770924       0.00000000
Si       1.93025001       0.22092498      -1.99699016       0.00000000
Si       2.33496855       2.32163355       0.27721411       0.00000000
Si      -0.87008148      -2.50492959      -2.59027789       0.00000000
Si       2.45991285      -2.89222434       0.17693298       0.00000000
Si       2.43366314      -0.18458199       2.94666353       0.00000000
Si      -2.98813986       2.49077751       0.05550222       0.00000000
Si      -0.28696464       2.53435326       2.94376254       0.00000000
