10
Lattice="16.28999089631971 0.0 0.0 0.0 16.28999089631971 0.0 0.0 0.0 34.53561885213415" Properties=species:S:1:pos:R:3:initial_magmoms:R:1 pbc="T T T"
Si      -0.85818978      -2.24964900       0.21408642       0.00000000
Si      -1.76743242       0.70530813       1.62272603       0.00000000
Si       2.20522617       0.64918908       1.23306042       0.00000000
Si       0.32185782       0.39949596      -2.62094412       0.00000000
Si      -2.31225147       2.33614890      -0.30056366       0.00000000
Si      -1.44850680       2.05229565      -2.64871077       0.00000000
Si       1.18850211      -3.57371649       0.28450459       0.00000000
Si      -2.78861994      -2.48013621      -1.25198595       0.00000000
Si       3.53696366       1.80775017      -0.68953855       0.00000000
Si      -1.55199717      -2.89908243       2.43538413       0.00000000
