10
Lattice="16.28999089631971 0.0 0.0 0.0 16.28999089631971 0.0 0.0 0.0 34.53561885213415" Properties=species:S:1:pos:R:3:initial_magmoms:R:1 pbc="T T T"
Si       0.82845452       0.02028105       2.23977428       0.00000000
Si       1.37407683      -1.27764099      -1.52395410       0.00000000
Si      -2.03890527      -1.18369656       0.55395164       0.00000000
Si      -0.45818883       2.25120374      -0.87420061       0.00000000
Si      -0.40381281       1.77941439       3.20794636       0.00000000
Si      -3.68181693       0.40661469       1.06625329       0.00000000
Si      -2.84196969      -2.45615733      -1.29498282       0.00000000
Si       0.26606457      -1.86233796       3.54618840       0.00000000
Si      -1.96118568      -2.20802805       2.72151189       0.00000000
Si      -2.51375877       2.26037501       2.17605602       0.00000000
