10
Lattice="16.28999089631971 0.0 0.0 0.0 16.28999089631971 0.0 0.0 0.0 34.53561885213415" Properties=species:S:1:pos:R:3:initial_magmoms:R:1 pbc="T T T"
Si       0.11239448       0.42857361      -2.35301663       0.00000000
Si      -1.42245225      -1.93486104       0.14988467       0.00000000
Si      -0.76515270       2.28622005       0.04265151       0.00000000
Si       2.01669548      -1.07502597       0.77549775       0.00000000
Si      -3.45847844      -0.83326608      -0.06489246       0.00000000
Si       1.28244002       3.43129302       0.23242484       0.00000000
Si      -1.19161187      -2.86681194      -2.02033483       0.00000000
Si       2.32003157       1.08600543      -2.87640423       0.00000000
Si      -1.47710945      -0.95188986      -3.43501818       0.00000000
Si       2.93633114       2.46464442      -1.08455718       0.00000000
