10
Lattice="16.28999089631971 0.0 0.0 0.0 16.28999089631971 0.0 0.0 0.0 34.53561885213415" Properties=species:S:1:pos:R:3:initial_magmoms:R:1 pbc="T T T"
Si       2.20763709       0.65743182      -0.52338760       0.00000000
Si      -1.58950394      -1.38046347      -1.08200154       0.00000000
Si      -0.58818303       2.11463748      -0.89661424       0.00000000
Si      -0.11239448      -0.42857361       2.35301663       0.00000000
Si      -0.87754719       1.85764644       2.39566815       0.00000000
Si       1.56250422       2.41132725      -1.97160505       0.00000000
Si      -3.49864307      -0.51811974       0.08675352       0.00000000
Si      -1.30400636      -3.29538555       0.33268180       0.00000000
Si       2.82393666       2.03607081       1.26845945       0.00000000
Si      -1.53484673      -2.36343465       2.50290130       0.00000000
