10
Lattice="16.28999089631971 0.0 0.0 0.0 16.28999089631971 0.0 0.0 0.0 34.53561885213415" Properties=species:S:1:pos:R:3:initial_magmoms:R:1 pbc="T T T"
Si       1.34974053       1.44521622       1.35950718       0.00000000
Si      -1.43792807      -1.32695082       1.40856851       0.00000000
Si       1.51229844      -1.34368065      -1.38795276       0.00000000
Si      -1.21327431       1.72626759      -1.28724684       0.00000000
Si       0.97168221       1.70170227      -2.54334254       0.00000000
Si       2.83183731       0.20101860      -2.52244848       0.00000000
Si       0.08363286      -2.52840348       2.86222186       0.00000000
Si      -2.62300670       0.19668546       2.87381548       0.00000000
Si       2.79775863       0.19321569       2.86129286       0.00000000
Si      -3.33655757      -2.24670051      -0.01333076       0.00000000
