10
Lattice="16.28999089631971 0.0 0.0 0.0 16.28999089631971 0.0 0.0 0.0 34.53561885213415" Properties=species:S:1:pos:R:3:initial_magmoms:R:1 pbc="T T T"
Si       1.35664749       1.35681039       1.35704337       0.00000000
Si       1.35744570      -1.35713619      -1.35825211       0.00000000
Si      -1.35731375       1.35790182      -1.35783769       0.00000000
Si      -1.35910891      -1.35793440       1.35676708       0.00000000
Si       0.00000000      -2.70971118       2.71760937       0.00000000
Si      -2.71276046      -0.00232947       2.71605526       0.00000000
Si      -2.71439406      -0.00040725      -2.71450116       0.00000000
Si       2.71471221      -2.71427238       0.00000000       0.00000000
Si      -0.00042354      -2.71485882      -2.71481198       0.00000000
Si      -2.71486059      -2.71490769      -0.00051803       0.00000000
