10
Lattice="16.28999089631971 0.0 0.0 0.0 16.28999089631971 0.0 0.0 0.0 34.53561885213415" Properties=species:S:1:pos:R:3:initial_magmoms:R:1 pbc="T T T"
Si      -1.35365155       1.35560493       1.35928818       0.00000000
Si      -1.35575168      -1.35697329      -1.35728512       0.00000000
Si       1.35910891      -1.35177678       1.36084229       0.00000000
Si       1.35910891       1.35793440      -1.35676708       0.00000000
Si      -2.71364263      -2.71430496      -0.00027629       0.00000000
Si       2.70565660       0.00884547       2.72251343       0.00000000
Si      -2.71378924       0.00042354      -2.71443209       0.00000000
Si       0.00133904      -2.71406061      -2.71457023       0.00000000
Si      -2.71540195       2.71406061       0.00034536       0.00000000
Si       2.71570753      -2.71456560       0.00183039       0.00000000
