10
Lattice="16.28999089631971 0.0 0.0 0.0 16.28999089631971 0.0 0.0 0.0 34.53561885213415" Properties=species:S:1:pos:R:3:initial_magmoms:R:1 pbc="T T T"
Si       1.98618268       1.20629079      -0.21139264       0.00000000
Si       0.45794122      -2.27427948       0.57287717       0.00000000
Si      -0.63706836      -0.28918008      -2.36334279       0.00000000
Si      -1.55769771       0.51430788       1.98949451       0.00000000
Si      -2.57095200      -1.03830831      -1.15974126       0.00000000
Si      -1.85301912      -2.84861601       0.46478062       0.00000000
Si       3.24290731      -1.08991503      -0.95166404       0.00000000
Si       1.57995895      -2.12592645       2.71636608       0.00000000
Si       2.15506111       2.56236813       1.89048083       0.00000000
Si      -2.55091530      -1.69684785       2.33505810       0.00000000
