10
Lattice="16.28999089631971 0.0 0.0 0.0 16.28999089631971 0.0 0.0 0.0 34.53561885213415" Properties=species:S:1:pos:R:3:initial_magmoms:R:1 pbc="T T T"
Si       1.15461891      -2.08554354      -0.11403668       0.00000000
Si      -1.35303111       0.71244315       1.88688913       0.00000000
Si      -1.58286020      -0.43530138      -1.84213094       0.00000000
Si       1.62015453       1.84355559      -0.37623124       0.00000000
Si       0.11046249       3.38340042       0.58417032       0.00000000
Si       1.26789957      -2.19675537      -2.49506171       0.00000000
Si      -2.11440128       2.81085579       1.06853264       0.00000000
Si      -0.15369615      -0.78576444      -3.82710128       0.00000000
Si       1.52796942      -0.76115025       3.58193278       0.00000000
Si      -0.09751194       0.96609474       3.92186707       0.00000000
