10
Lattice="16.28999089631971 0.0 0.0 0.0 16.28999089631971 0.0 0.0 0.0 34.53561885213415" Properties=species:S:1:pos:R:3:initial_magmoms:R:1 pbc="T T T"
Si       1.35145535       1.34514675       1.38161202       0.00000000
Si      -1.36575153      -1.36443411       1.37384150       0.00000000
Si       1.37770505      -1.36249560      -1.38811853       0.00000000
Si      -1.08220779       1.52972874      -1.56505151       0.00000000
Si      -0.24434793      -2.53939923      -2.77549252       0.00000000
Si       2.71117024       2.69418328       0.04977622       0.00000000
Si      -2.70162927       2.71835334      -0.00734228       0.00000000
Si      -0.00493431       2.70579147       2.73706674       0.00000000
Si       2.70652759      -0.00965997       2.73765385       0.00000000
Si       2.71747447      -2.73670371       0.00053185       0.00000000
