10
Lattice="16.28999089631971 0.0 0.0 0.0 16.28999089631971 0.0 0.0 0.0 34.53561885213415" Properties=species:S:1:pos:R:3:initial_magmoms:R:1 pbc="T T T"
Si      -0.33584930       1.21024926      -2.06167399       0.00000000
Si       2.22455588      -1.05743277       0.22285847       0.00000000
Si      -0.35998294       2.55696052       0.36911690       0.00000000
Si      -1.33173749      -1.15856109       1.92259898       0.00000000
Si       0.34958666       2.39423971       2.57995031       0.00000000
Si      -1.34770169      -0.58826448      -3.30830692       0.00000000
Si      -1.06904721       0.67453632       3.46344101       0.00000000
Si       1.36429727      -3.33340641       0.87502946       0.00000000
Si      -3.21510584      -1.40825421      -1.93140556       0.00000000
Si      -3.53696366      -1.80775017       0.68953855       0.00000000
