10
Lattice="16.28999089631971 0.0 0.0 0.0 16.28999089631971 0.0 0.0 0.0 34.53561885213415" Properties=species:S:1:pos:R:3:initial_magmoms:R:1 pbc="T T T"
Si       1.62548136      -1.72724499      -0.33993429       0.00000000
Si       1.15517277       1.95307326       0.78499506       0.00000000
Si      -1.25551917      -0.25365159      -2.03497794       0.00000000
Si      -1.53072080      -0.46333647       1.81453696       0.00000000
Si      -3.00749957      -1.73265327      -1.28610716       0.00000000
Si      -2.85396632      -2.24777565       1.11384340       0.00000000
Si       2.51327007       1.28666565       2.64764016       0.00000000
Si       0.54569871      -3.84672060      -0.57001071       0.00000000
Si      -0.38227743      -0.96044211       3.79822948       0.00000000
Si      -0.37014138       3.54283065       1.68122940       0.00000000
