10
Lattice="16.28999089631971 0.0 0.0 0.0 16.28999089631971 0.0 0.0 0.0 34.53561885213415" Properties=species:S:1:pos:R:3:initial_magmoms:R:1 pbc="T T T"
Si       1.33574742       1.36226754      -1.33328285       0.00000000
Si      -1.52531415       1.58975739       0.89623435       0.00000000
Si       1.35809730      -0.66640761       1.86264511       0.00000000
Si      -1.15517277      -1.95307326      -0.78499506       0.00000000
Si      -1.58790033       0.90898200       3.20255880       0.00000000
Si      -0.25109406      -1.00323594       3.58369410       0.00000000
Si      -2.68589357      -2.41640973       1.02954191       0.00000000
Si       0.47030859      -3.68031825      -1.12492934       0.00000000
Si       0.17940177       2.19915393      -3.19962327       0.00000000
Si       3.33620829       0.38566575      -1.96739170       0.00000000
