10
Lattice="16.2900001489832 0.0 0.0 0.0 16.2900001489832 0.0 0.0 0.0 28.96283823314758" Properties=species:S:1:pos:R:3:initial_magmoms:R:1 pbc="T T T"
Si       2.25494327       0.42802757      -0.51093343       0.00000000
Si      -0.40202091      -2.27180049      -0.51099135       0.00000000
Si      -1.33636645       1.37803432      -1.42413172       0.00000000
Si      -0.32827608       0.17248308       2.37486585       0.00000000
Si      -1.82483840       2.02188517       2.33162433       0.00000000
Si      -2.70896186      -2.56925589      -0.10316563       0.00000000
Si       3.56389365      -0.86400239       0.98189814       0.00000000
Si       2.70492194       2.68120664      -0.13760244       0.00000000
Si       1.60063912       1.16886094       3.30179252       0.00000000
Si      -0.87498478       3.62115594      -0.98369384       0.00000000
