10
Lattice="16.2900001489832 0.0 0.0 0.0 16.2900001489832 0.0 0.0 0.0 28.96283823314758" Properties=species:S:1:pos:R:3:initial_magmoms:R:1 pbc="T T T"
Si      -1.01985175      -1.68265928      -1.31250894       0.00000000
Si       0.14910237      -1.68142124       1.72644582       0.00000000
Si       1.78142555       0.97135642      -1.31224827       0.00000000
Si      -1.62478090       1.85600117       0.23911719       0.00000000
Si       2.66779703       0.78133357       1.81391360       0.00000000
Si      -2.22472532      -0.28056267      -2.70953144       0.00000000
Si       0.53424684       2.42808968      -2.66324883       0.00000000
Si       2.49997745      -1.67593151       2.05763588       0.00000000
Si      -3.43443702       1.05896404      -1.17548575       0.00000000
Si      -2.98804215      -2.33116418      -0.04451588       0.00000000
