10
Lattice="16.2900001489832 0.0 0.0 0.0 16.2900001489832 0.0 0.0 0.0 28.96283823314758" Properties=species:S:1:pos:R:3:initial_magmoms:R:1 pbc="T T T"
Si      -1.24717870       1.45673326      -1.35100055       0.00000000
Si       0.99961957       1.71439220       1.26758758       0.00000000
Si       1.50640147      -1.34604271      -1.24525723       0.00000000
Si      -1.78142555      -0.97135642       1.31224827       0.00000000
Si       0.88637149      -0.19002285       3.12616187       0.00000000
Si      -2.48399696       2.69255783       0.26133169       0.00000000
Si      -2.59766858       0.09350460      -2.67654277       0.00000000
Si       0.13237254      -2.65263104      -2.68980775       0.00000000
Si      -3.40620645       0.88464475       1.55136547       0.00000000
Si      -2.80127730      -2.65401569      -0.00026067       0.00000000
