10
Lattice="16.2900001489832 0.0 0.0 0.0 16.2900001489832 0.0 0.0 0.0 28.96283823314758" Properties=species:S:1:pos:R:3:initial_magmoms:R:1 pbc="T T T"
Si       0.41304924       2.21877947       0.52790565       0.00000000
Si      -2.22594707      -0.37382292       0.53482777       0.00000000
Si       0.43039809      -0.31120416      -2.27659494       0.00000000
Si       1.35395965      -1.31377222       1.38091916       0.00000000
Si      -1.83081683      -0.24053814       2.87065171       0.00000000
Si       0.56156518      -0.85525759       3.52854258       0.00000000
Si       2.67442706       2.59649570      -0.00680627       0.00000000
Si       0.03978018      -2.57560704      -2.72647470       0.00000000
Si      -2.68732874      -2.61694454       0.09438989       0.00000000
Si       3.56915532      -0.74437156       0.91157637       0.00000000
