10
Lattice="16.2900001489832 0.0 0.0 0.0 16.2900001489832 0.0 0.0 0.0 28.96283823314758" Properties=species:S:1:pos:R:3:initial_magmoms:R:1 pbc="T T T"
Si       1.42970815      -1.33762078      -1.28401820       0.00000000
Si      -1.27187434      -1.39605301       1.42606354       0.00000000
Si       1.40447494       1.34291503       1.35270067       0.00000000
Si      -1.71986564       0.99274519      -1.36179500       0.00000000
Si       2.57774591       0.19603386      -2.56984918       0.00000000
Si      -3.43860726      -0.78788215      -1.19223496       0.00000000
Si      -2.61174314       2.67905342       0.05475135       0.00000000
Si      -2.63583605      -2.66105297       0.01664784       0.00000000
Si       0.21147678      -2.76788280      -2.62848705       0.00000000
Si      -2.61615773      -0.03230307       2.81202224       0.00000000
