10
Lattice="16.2900001489832 0.0 0.0 0.0 16.2900001489832 0.0 0.0 0.0 28.96283823314758" Properties=species:S:1:pos:R:3:initial_magmoms:R:1 pbc="T T T"
H        1.42419399      -0.95519511       1.40562447       0.00000000
Si      -1.22700354       1.37569051      -1.44938731       0.00000000
Si      -0.31811927      -2.31493934      -0.48460621       0.00000000
Si       2.30474995      -0.27298782      -0.60995737       0.00000000
Si      -0.28846332       0.49474359       2.33782238       0.00000000
H        1.97950380      -1.78414598      -0.79749175       0.00000000
H        1.71262473      -1.68876314       1.50635722       0.00000000
H        2.67705790       1.49765374      -0.14394531       0.00000000
Si      -3.45907565       0.88110982      -0.87948555       0.00000000
Si      -2.55535531      -2.78363523       0.06710690       0.00000000
