10
Lattice="16.2900001489832 0.0 0.0 0.0 16.2900001489832 0.0 0.0 0.0 28.96283823314758" Properties=species:S:1:pos:R:3:initial_magmoms:R:1 pbc="T T T"
Si       1.31194774       1.38279295       1.39308356       0.00000000
Si      -1.36155079      -1.33854931       1.40324951       0.00000000
Si      -1.37414296       1.37573938      -1.36116651       0.00000000
Si       1.42249168      -1.37876932      -1.32840954       0.00000000
Si      -2.66870927       2.64847709       0.16621773       0.00000000
Si       2.59848308      -0.00330687       2.74104301       0.00000000
Si       0.01254330      -2.72776052      -2.67415913       0.00000000
Si      -2.71204067      -2.70177797       0.07770729       0.00000000
Si       2.69519681       2.74251927       0.06693312       0.00000000
Si       2.72917775      -2.71645526       0.14084628       0.00000000
