10
Lattice="16.2900001489832 0.0 0.0 0.0 16.2900001489832 0.0 0.0 0.0 28.96283823314758" Properties=species:S:1:pos:R:3:initial_magmoms:R:1 pbc="T T T"
Si       0.86345146       1.82552258      -1.31245101       0.00000000
Si      -1.82939960      -0.89792110      -1.31546315       0.00000000
Si      -0.24770574       0.58600018       2.40351009       0.00000000
Si       1.65421694      -1.87608674      -0.30920726       0.00000000
Si       2.08091720       0.58759660      -2.93796135       0.00000000
Si      -0.59258134      -2.13374567      -2.92779539       0.00000000
Si       3.36745254      -0.79850323      -1.59000189       0.00000000
Si       2.66769929       2.77478976      -0.00949981       0.00000000
Si      -2.75160909      -2.70583418      -0.02542937       0.00000000
Si      -2.43551792       0.07597656       3.06510821       0.00000000
