10
Lattice="16.2900001489832 0.0 0.0 0.0 16.2900001489832 0.0 0.0 0.0 28.96283823314758" Properties=species:S:1:pos:R:3:initial_magmoms:R:1 pbc="T T T"
Si      -1.32473539       1.34434855      -1.41480568       0.00000000
Si       1.29456631      -1.27273771      -1.52738424       0.00000000
Si       1.40289481       1.34965909       1.36174577       0.00000000
Si      -1.34325712      -1.37753128       1.41555872       0.00000000
Si       2.66870927      -2.64847709      -0.16621773       0.00000000
Si      -2.72606636      -2.64795581      -0.06806267       0.00000000
Si      -0.02712285       2.77379607       2.61363549       0.00000000
Si      -2.70964604       0.06675642       2.72922617       0.00000000
Si       2.72073953       2.76276774      -0.06884467       0.00000000
Si      -0.10990863      -2.61565274      -2.88008491       0.00000000
