10
Lattice="16.2900001489832 0.0 0.0 0.0 16.2900001489832 0.0 0.0 0.0 28.96283823314758" Properties=species:S:1:pos:R:3:initial_magmoms:R:1 pbc="T T T"
Si      -0.52774713       0.51305355       2.22900899       0.00000000
Si       2.27473562       0.43109856      -0.39027425       0.00000000
Si      -1.33905430       1.35198856      -1.38089020       0.00000000
Si      -0.42839442      -2.28797939      -0.35957364       0.00000000
H        0.25350498      -0.47249145       3.09673563       0.00000000
Si      -0.88624117       3.60222402      -0.84374540       0.00000000
Si       2.71200809      -0.01715337      -2.69229855       0.00000000
Si       0.02414178      -2.75706624      -2.65345939       0.00000000
Si       2.71963181       2.69413796       0.09372374       0.00000000
Si      -3.60463494       0.89614549      -0.94117639       0.00000000
