10
Lattice="16.2900001489832 0.0 0.0 0.0 16.2900001489832 0.0 0.0 0.0 28.96283823314758" Properties=species:S:1:pos:R:3:initial_magmoms:R:1 pbc="T T T"
Si       2.26395164       0.42743331      -0.45926373       0.00000000
Si      -0.45281313      -2.25023546      -0.53714480       0.00000000
Si      -1.35809731       1.32113530      -1.44003232       0.00000000
Si      -0.42072183       0.38535624       2.32626620       0.00000000
H       -1.82382842       1.84554299       1.06270446       0.00000000
Si       0.88624117      -3.60222402       0.84374540       0.00000000
Si       2.71656929       2.68998727       0.03747791       0.00000000
Si       3.60587298      -0.90808606       0.93746915       0.00000000
Si      -2.71839377      -2.70607853      -0.09743099       0.00000000
Si      -0.91163728       3.59707638      -1.02059249       0.00000000
