10
Lattice="16.2900001489832 0.0 0.0 0.0 16.2900001489832 0.0 0.0 0.0 28.96283823314758" Properties=species:S:1:pos:R:3:initial_magmoms:R:1 pbc="T T T"
Si       2.34150833      -0.52463574       0.50369272       0.00000000
Si      -1.15053013       0.76595581       2.02612431       0.00000000
Si      -0.67655629      -0.14801094      -2.35577934       0.00000000
Si      -1.89988643       1.64372618      -1.44316030       0.00000000
H       -1.90575083      -1.73767061       1.62044184       0.00000000
Si       0.09716985      -0.60747040       3.46534567       0.00000000
Si      -0.87022810      -2.51874353       2.44075630       0.00000000
Si       0.15980490      -3.56535324       0.61711119       0.00000000
Si       2.31717107      -2.88383827       0.03962116       0.00000000
Si       2.36441207      -0.26655327       2.90016484       0.00000000
