10
Lattice="16.2900001489832 0.0 0.0 0.0 16.2900001489832 0.0 0.0 0.0 28.96283823314758" Properties=species:S:1:pos:R:3:initial_magmoms:R:1 pbc="T T T"
Si       1.35371530      -1.28202301       1.33220367       0.00000000
Si      -2.21519567      -0.56940067       0.46934279       0.00000000
Si       0.47912148      -0.47591235      -2.25519140       0.00000000
Si       0.49172994       2.23920713       0.58626577       0.00000000
Si       0.94561822      -0.17246223       3.36704580       0.00000000
Si      -0.89472826       3.34086726      -0.91838264       0.00000000
Si      -3.56915532       0.74437156      -0.91157637       0.00000000
Si       2.77850388       2.59081049       0.10012453       0.00000000
Si       0.05525568      -2.76280194      -2.64317758       0.00000000
Si       2.76413610      -0.05238864      -2.67355960       0.00000000
