10
Lattice="16.2900001489832 0.0 0.0 0.0 16.2900001489832 0.0 0.0 0.0 28.96283823314758" Properties=species:S:1:pos:R:3:initial_magmoms:R:1 pbc="T T T"
Si      -0.99961957      -1.71439220      -1.26758758       0.00000000
Si       1.71323561       1.07758351      -1.28079463       0.00000000
Si      -1.65421694       1.87608674       0.30920726       0.00000000
Si       1.95602177      -0.98727175       1.27755079       0.00000000
Si      -0.11324808      -1.90441505       1.85857429       0.00000000
Si      -2.24679827      -0.25765893      -2.61858813       0.00000000
Si       2.85573477       1.14681601       1.85527253       0.00000000
Si       0.42670026       2.46368333      -2.62875409       0.00000000
Si      -3.48361653       0.97816564      -1.00625589       0.00000000
Si       2.63935469       2.79319746       0.09705447       0.00000000
