10
Lattice="16.2900001489832 0.0 0.0 0.0 16.2900001489832 0.0 0.0 0.0 28.96283823314758" Properties=species:S:1:pos:R:3:initial_magmoms:R:1 pbc="T T T"
Si      -0.13238883      -0.61893856      -2.28250915       0.00000000
Si      -1.88294483       0.87278563       1.17571746       0.00000000
Si       0.81243118      -1.90778708       1.19338189       0.00000000
Si       1.75979243       1.75497059      -0.00756509       0.00000000
Si       2.22549095      -0.60621607       2.60305826       0.00000000
Si      -0.59349358       2.23985873       2.59384807       0.00000000
Si       0.78807763       1.29704239      -3.35931851       0.00000000
Si       0.88842403      -2.78889690      -2.42219692       0.00000000
Si       0.71350201       3.57943431       1.12182630       0.00000000
Si       3.54543887       0.81580321       1.23282059       0.00000000
