10
Lattice="16.2900001489832 0.0 0.0 0.0 16.2900001489832 0.0 0.0 0.0 28.96283823314758" Properties=species:S:1:pos:R:3:initial_magmoms:R:1 pbc="T T T"
Si      -1.28653534       1.38609982      -1.34795945       0.00000000
Si       1.51935202      -1.35624025      -1.22617072       0.00000000
Si       0.92611909       1.71561395       1.37784910       0.00000000
Si      -1.71323561      -1.07758351       1.28079463       0.00000000
Si       0.24278616      -2.06485526       2.55834543       0.00000000
Si       1.14249916       0.06923250       3.13606716       0.00000000
Si      -2.50400108       2.62402580       0.27755088       0.00000000
Si       0.13069467      -2.71314839      -2.60019673       0.00000000
Si      -2.59848308       0.00330687      -2.74104301       0.00000000
Si       2.70945056       2.67169034       0.06331276       0.00000000
