10
Lattice="16.2900001489832 0.0 0.0 0.0 16.2900001489832 0.0 0.0 0.0 28.96283823314758" Properties=species:S:1:pos:R:3:initial_magmoms:R:1 pbc="T T T"
Si       1.57241481       1.17118585       1.29626079       0.00000000
Si      -1.39847885       1.35337321      -1.35913911       0.00000000
Si      -1.11897503      -1.48623934       1.47536698       0.00000000
Si       1.31779559      -1.34346563      -1.45824994       0.00000000
H        0.05839923      -2.75182086       1.47221003       0.00000000
Si       3.23685698      -0.67802239       1.14067242       0.00000000
Si       2.63818318      -2.73204944      -0.11104352       0.00000000
Si       0.03064546       2.68240916      -2.70967626       0.00000000
Si      -2.64774268      -2.74554014       0.11721261       0.00000000
Si      -2.64094975       2.76853440       0.11564861       0.00000000
