10
Lattice="16.2900001489832 0.0 0.0 0.0 16.2900001489832 0.0 0.0 0.0 28.96283823314758" Properties=species:S:1:pos:R:3:initial_magmoms:R:1 pbc="T T T"
Si      -0.39056904      -2.24200901      -0.54357455       0.00000000
Si      -1.34311051       1.30043071      -1.40881038       0.00000000
Si       2.24766164       0.39244239      -0.59315893       0.00000000
Si      -0.46410210       0.33521562       2.28707948       0.00000000
Si      -0.24021234       0.76984912      -3.43513743       0.00000000
Si      -0.02016702       2.60771951       2.68940227       0.00000000
Si       2.10215936       0.69631606      -3.02748548       0.00000000
Si      -2.68579748      -2.61952976       0.01931821       0.00000000
Si       2.69967656       2.61589709       0.02632722       0.00000000
Si       3.59134230      -1.00457173       0.82019862       0.00000000
