10
Lattice="16.2900001489832 0.0 0.0 0.0 16.2900001489832 0.0 0.0 0.0 28.96283823314758" Properties=species:S:1:pos:R:3:initial_magmoms:R:1 pbc="T T T"
Si      -0.44567811      -2.26686755      -0.44762066       0.00000000
Si       2.27844974       0.38286387      -0.47441129       0.00000000
Si      -0.43701183       0.43442172       2.29828810       0.00000000
Si      -1.34607529       1.30399822      -1.47084878       0.00000000
Si       0.05675436      -2.57188151      -2.74217256       0.00000000
Si       2.72238482       2.65536776      -0.07208850       0.00000000
Si      -0.91807183       3.57405861      -0.97961008       0.00000000
Si      -3.60593814       0.83414575      -0.94077091       0.00000000
Si      -0.01418859       2.69104286       2.74973186       0.00000000
Si      -2.69285105      -0.01019754       2.76997689       0.00000000
