10
Lattice="16.2900001489832 0.0 0.0 0.0 16.2900001489832 0.0 0.0 0.0 28.96283823314758" Properties=species:S:1:pos:R:3:initial_magmoms:R:1 pbc="T T T"
Si       0.42282324       2.25662114       0.45144376       0.00000000
Si      -2.25583922      -0.44461926       0.47168878       0.00000000
Si       1.35146728      -1.41804451       1.32478918       0.00000000
Si       0.43701183      -0.43442172      -2.29828810       0.00000000
Si       2.71415837       2.66139506      -0.10006661       0.00000000
Si      -2.68613957      -2.70181055      -0.03695658       0.00000000
Si      -0.91833247       3.58788882      -0.97587387       0.00000000
Si      -3.62146251       0.86881087      -0.94517326       0.00000000
Si      -0.00866628      -2.70128927      -2.74590877       0.00000000
Si       3.62385714      -1.00836730       0.87204210       0.00000000
