10
Lattice="16.2900001489832 0.0 0.0 0.0 16.2900001489832 0.0 0.0 0.0 28.96283823314758" Properties=species:S:1:pos:R:3:initial_magmoms:R:1 pbc="T T T"
Si       0.33863652       2.28424898       0.35728557       0.00000000
Si       1.34311051      -1.30043071       1.40881038       0.00000000
Si       1.10289817      -0.53058159      -2.02632705       0.00000000
Si      -2.29825838      -0.46092555       0.35018968       0.00000000
Si       0.20318517      -2.66466935      -2.60404879       0.00000000
Si       2.66209553       2.65109978       0.05285718       0.00000000
Si       0.95254147      -3.54243972       0.86523583       0.00000000
Si      -0.04797405       2.65450439       2.69116900       0.00000000
Si       3.59077215      -0.90798832       0.81565145       0.00000000
Si      -2.74551663      -0.04408074       2.69945237       0.00000000
