10
Lattice="16.2900001489832 0.0 0.0 0.0 16.2900001489832 0.0 0.0 0.0 28.96283823314758" Properties=species:S:1:pos:R:3:initial_magmoms:R:1 pbc="T T T"
Si      -2.34624872      -0.18489150       0.27329334       0.00000000
Si       0.45406746       0.77625109      -2.27723212       0.00000000
H        2.41165307       0.57282157       0.69140087       0.00000000
Si       0.43738650       1.64734256       2.01578458       0.00000000
Si       0.45312264      -2.69439860       0.48732872       0.00000000
H        0.00184077      -1.02381022      -2.84878477       0.00000000
H       -2.18619947      -0.52406559      -2.07961867       0.00000000
H        0.82992664       2.27072828      -2.16201795       0.00000000
H       -0.80185897       2.53345340       1.96324599       0.00000000
Si      -2.18887103      -0.75711034       2.51849575       0.00000000
