10
Lattice="16.2900001489832 0.0 0.0 0.0 16.2900001489832 0.0 0.0 0.0 28.96283823314758" Properties=species:S:1:pos:R:3:initial_magmoms:R:1 pbc="T T T"
Si      -1.31118211       1.37329588       1.46993065       0.00000000
Si       1.33304329       1.61122762      -1.18888396       0.00000000
Si       1.33566598      -1.28879965       1.56761072       0.00000000
Si      -1.60419034      -1.39035151      -1.45345949       0.00000000
H       -2.84343582      -0.50424066      -1.50599808       0.00000000
H        0.37007622      -2.46487250      -2.77784319       0.00000000
Si      -2.62358597      -2.66817170       0.24943955       0.00000000
Si      -2.91442764       2.63479349       0.15565788       0.00000000
Si       2.38195640      -3.11326338       0.43821933       0.00000000
Si      -2.64935675       0.05997978       2.96522696       0.00000000
