10
Lattice="16.2900001489832 0.0 0.0 0.0 16.2900001489832 0.0 0.0 0.0 28.96283823314758" Properties=species:S:1:pos:R:3:initial_magmoms:R:1 pbc="T T T"
Si       1.36109467       1.34838847       1.35285417       0.00000000
Si      -1.38324907      -1.35972631       1.32615044       0.00000000
Si       1.36304947      -1.34723188      -1.36026866       0.00000000
Si      -1.31497768       1.34112313      -1.43467419       0.00000000
Si      -2.64316655       2.66872556       0.03043994       0.00000000
Si       2.61273683      -0.07413579       2.73742266       0.00000000
Si       2.73041579       2.68240916      -0.05204622       0.00000000
Si      -0.09671373      -2.74582614       2.67410989       0.00000000
Si      -2.69519681      -2.74251927      -0.06693312       0.00000000
Si       0.07359822      -2.71430498      -2.77839928       0.00000000
