10
Lattice="16.2900001489832 0.0 0.0 0.0 16.2900001489832 0.0 0.0 0.0 28.96283823314758" Properties=species:S:1:pos:R:3:initial_magmoms:R:1 pbc="T T T"
Si       1.22552929      -1.28000305      -1.58910405       0.00000000
Si      -0.93203236      -1.80092468       1.31265375       0.00000000
Si       1.81856675       0.94309327       1.30903340       0.00000000
Si      -1.40335093       1.38003994      -1.45387655       0.00000000
Si       2.47717145      -2.70252731      -0.20453556       0.00000000
Si       3.47617200      -0.91109971       0.98598190       0.00000000
Si       2.69079851       2.75376843      -0.01036870       0.00000000
Si      -2.73628019      -2.75019186       0.00970255       0.00000000
Si       0.69383998      -3.65860371       1.11000078       0.00000000
Si      -0.13556538      -2.62839152      -2.94195822       0.00000000
