10
Lattice="16.2900001489832 0.0 0.0 0.0 16.2900001489832 0.0 0.0 0.0 28.96283823314758" Properties=species:S:1:pos:R:3:initial_magmoms:R:1 pbc="T T T"
Si      -1.28096416       1.28788741      -1.45376070       0.00000000
Si      -0.30529089      -2.29819322      -0.43116977       0.00000000
Si      -0.45012528       0.35881983       2.31450729       0.00000000
Si       2.30488841       0.40317750      -0.58168964       0.00000000
H        1.66250855      -1.47561337       1.39499510       0.00000000
H        1.86680144      -1.63406620      -1.03892597       0.00000000
H        2.07555779       0.13424589       1.83737349       0.00000000
H        1.92067247       0.89969671       1.95409373       0.00000000
H        1.92052586      -2.41761521      -0.98983396       0.00000000
Si       1.28664937      -2.97009057       1.27978093       0.00000000
