10
Lattice="16.2900001489832 0.0 0.0 0.0 16.2900001489832 0.0 0.0 0.0 28.96283823314758" Properties=species:S:1:pos:R:3:initial_magmoms:R:1 pbc="T T T"
H       -1.13010247      -1.24398586      -0.38767338       0.00000000
Si      -1.09314046       1.49417094       1.49108222       0.00000000
Si       0.07794765       1.34250778      -1.98566323       0.00000000
Si       1.60324552      -1.26149761       1.31427278       0.00000000
Si      -2.33825033      -2.40670091       0.04269991       0.00000000
H        0.07099182      -3.13903416      -1.66165596       0.00000000
Si       2.17549694       2.44687857      -1.58725042       0.00000000
Si      -2.45834021       0.13541877       2.87977501       0.00000000
Si       0.26507088      -2.57481371       2.80956909       0.00000000
Si      -1.86313619       2.70498873      -1.97089218       0.00000000
