10
Lattice="16.2900001489832 0.0 0.0 0.0 16.2900001489832 0.0 0.0 0.0 28.96283823314758" Properties=species:S:1:pos:R:3:initial_magmoms:R:1 pbc="T T T"
Si       1.40454010      -1.33234282       1.31407293       0.00000000
Si      -2.24036372      -0.51188067       0.56917770       0.00000000
Si       0.64249390       1.71012259      -1.57679484       0.00000000
Si      -2.05905602      -0.92150902      -1.91328509       0.00000000
Si      -0.15078024       3.14972040       0.11225996       0.00000000
H        0.22604004       2.74960542       1.55090206       0.00000000
Si      -0.70519411       0.52491121      -3.17887424       0.00000000
Si      -3.36409680       0.95760603      -0.86656812       0.00000000
Si       0.83263078      -3.56821050       0.70591126       0.00000000
Si       3.63698688      -0.88702309       0.71882868       0.00000000
