10
Lattice="16.2900001489832 0.0 0.0 0.0 16.2900001489832 0.0 0.0 0.0 28.96283823314758" Properties=species:S:1:pos:R:3:initial_magmoms:R:1 pbc="T T T"
H       -0.38784861      -2.22853718      -0.43870011       0.00000000
Si       0.46126764       2.30262410       0.24169489       0.00000000
Si      -2.24867162      -0.52996257       0.49833459       0.00000000
Si       1.11228121      -0.37866105       2.08848130       0.00000000
Si       0.53123319      -0.48687552      -2.31051042       0.00000000
H        1.86261491      -1.74293228      -0.75885532       0.00000000
H       -0.23296329      -2.99398800      -0.55542035       0.00000000
Si      -0.17329302       1.24479059       3.20187073       0.00000000
Si      -2.27084231       0.14041980       2.80345793       0.00000000
Si       3.07100712       0.88733097       1.70443407       0.00000000
