10
Lattice="16.2900001489832 0.0 0.0 0.0 16.2900001489832 0.0 0.0 0.0 28.96283823314758" Properties=species:S:1:pos:R:3:initial_magmoms:R:1 pbc="T T T"
Si       0.42751965       2.26531837       0.47907431       0.00000000
Si      -2.17795673      -0.57241117       0.68870733       0.00000000
Si       1.33329253      -1.35459659       1.41894737       0.00000000
Si       0.40997369      -0.39487612      -2.34570027       0.00000000
H       -3.12491073       0.31825936      -0.10050105       0.00000000
Si       2.69615792       2.71350515      -0.02493700       0.00000000
Si       0.03805344      -2.69638761      -2.72007392       0.00000000
Si       0.87041543      -3.62341894       0.93324057       0.00000000
Si       3.60979887      -0.93964142       0.92174233       0.00000000
Si      -0.93885787       3.60891758      -0.93819322       0.00000000
