10
Lattice="16.2900001489832 0.0 0.0 0.0 16.2900001489832 0.0 0.0 0.0 28.96283823314758" Properties=species:S:1:pos:R:3:initial_magmoms:R:1 pbc="T T T"
Si      -0.43996032      -2.24847614      -0.50942736       0.00000000
Si       2.23664146       0.52421220      -0.51249742       0.00000000
Si      -1.34825815       1.35071794      -1.42085892       0.00000000
Si      -0.43632765       0.37931265       2.31592647       0.00000000
Si      -2.75867895       0.12108357       2.58490435       0.00000000
Si      -2.68871339      -2.66841605       0.03269904       0.00000000
Si       0.96824503      -3.59078844       0.80791837       0.00000000
Si       2.52510478       0.02946861      -2.85031980       0.00000000
Si       3.62160912      -0.81995716       0.87745815       0.00000000
Si      -0.90600094       3.61624971      -0.96208756       0.00000000
