10
Lattice="16.2900001489832 0.0 0.0 0.0 16.2900001489832 0.0 0.0 0.0 28.96283823314758" Properties=species:S:1:pos:R:3:initial_magmoms:R:1 pbc="T T T"
Si       0.18526617      -0.39222899      -2.27526265       0.00000000
Si      -0.62078747      -1.99827640       1.01433652       0.00000000
Si       1.99630694       0.60211261       1.03854945       0.00000000
Si       0.78768667       1.38520550       2.87575960       0.00000000
H       -0.15752430       2.41875714       2.29405953       0.00000000
Si      -2.03062997      -1.28240257       2.70637449       0.00000000
Si       2.48477888      -0.04173824      -2.71720659       0.00000000
Si      -2.50528799      -2.79752897      -0.05242274       0.00000000
Si      -3.58528242      -0.86648140       0.89492274       0.00000000
Si      -1.17951004       3.54369568      -0.78651484       0.00000000
