10
Lattice="16.2900001489832 0.0 0.0 0.0 16.2900001489832 0.0 0.0 0.0 28.96283823314758" Properties=species:S:1:pos:R:3:initial_magmoms:R:1 pbc="T T T"
Si      -2.26292537      -0.41445018       0.46951657       0.00000000
Si       0.48509991       2.26748657       0.44530364       0.00000000
Si       0.45165654      -0.30582846      -2.30274838       0.00000000
Si       1.36324495      -1.32380686       1.41274932       0.00000000
Si       3.59531706      -0.82922617       0.84284756       0.00000000
Si      -2.65676870      -2.71156989       0.07594056       0.00000000
Si      -3.59370435       0.99509095      -0.88452508       0.00000000
Si       0.03881907       2.68801292       2.73342578       0.00000000
Si      -2.69161301       0.02023218       2.74480818       0.00000000
Si      -0.86957650       3.64482237      -0.91131570       0.00000000
