10
Lattice="16.2900001489832 0.0 0.0 0.0 16.2900001489832 0.0 0.0 0.0 28.96283823314758" Properties=species:S:1:pos:R:3:initial_magmoms:R:1 pbc="T T T"
Si       1.78564645      -0.93916738       1.24038568       0.00000000
Si       0.89891479       0.23488551      -2.18061209       0.00000000
Si      -1.04629042       1.82446373       1.12939140       0.00000000
Si      -1.75979243      -1.75497059       0.00756509       0.00000000
Si      -0.97171480      -0.45792819      -3.35175342       0.00000000
Si      -2.35328600       0.48488814       2.60141317       0.00000000
Si       0.46569852      -2.36118665       2.61062335       0.00000000
Si      -1.89218126      -2.37390914      -2.27494405       0.00000000
H       -2.01188018       0.64839088      -3.21606252       0.00000000
Si      -3.64273725      -0.88218496       1.18328255       0.00000000
