10
Lattice="16.2900001489832 0.0 0.0 0.0 16.2900001489832 0.0 0.0 0.0 28.96283823314758" Properties=species:S:1:pos:R:3:initial_magmoms:R:1 pbc="T T T"
Si       0.33841009       2.25919496       0.46236275       0.00000000
Si      -2.26932734      -0.39856743       0.46030639       0.00000000
Si       1.28412768      -1.30220632       1.48202843       0.00000000
Si       0.35781800      -0.33532965      -2.31082901       0.00000000
Si       0.79850323      -3.52970094       1.03631931       0.00000000
Si      -3.53765046       0.94879477      -0.98018933       0.00000000
Si      -0.09752823      -2.58650993      -2.77898433       0.00000000
Si       2.62765847       0.09280413      -2.76424224       0.00000000
Si      -2.70239699       0.05471811       2.73325201       0.00000000
Si      -2.79222006      -2.65175138       0.02293857       0.00000000
