10
Lattice="16.2900001489832 0.0 0.0 0.0 16.2900001489832 0.0 0.0 0.0 28.96283823314758" Properties=species:S:1:pos:R:3:initial_magmoms:R:1 pbc="T T T"
Si       1.11189025       1.44386416      -1.55643396       0.00000000
Si      -0.95319307       1.41837031       1.75581414       0.00000000
Si      -1.50819337      -1.22526865      -1.53198933       0.00000000
Si       1.54337163      -1.42493518       1.34048704       0.00000000
Si       2.27961936       3.05727465      -0.21751092       0.00000000
Si      -2.97194763      -2.43392150      -0.14217857       0.00000000
Si      -3.29556477       1.49190337       1.34816219       0.00000000
Si       2.51371970       0.11251503      -2.97830658       0.00000000
Si       0.04611699      -2.81054631       2.71729348       0.00000000
Si      -2.29539134      -2.28591056       2.21360076       0.00000000
