10
Lattice="16.2900001489832 0.0 0.0 0.0 16.2900001489832 0.0 0.0 0.0 28.96283823314758" Properties=species:S:1:pos:R:3:initial_magmoms:R:1 pbc="T T T"
Si      -0.00970721       1.51510033      -1.84924826       0.00000000
Si      -1.24032713       0.67303765       1.93086554       0.00000000
Si      -1.26049415      -1.92384902      -0.66860712       0.00000000
Si       2.28191299      -0.77577868       0.48929819       0.00000000
H       -1.09510357       2.78518278      -1.57644728       0.00000000
Si       0.04033404      -0.73995697       3.31369625       0.00000000
Si      -1.28444045       0.07703541      -3.24841401       0.00000000
Si       2.02990669       3.00638795      -0.43638308       0.00000000
Si       2.29326712      -0.30665925       2.83386891       0.00000000
Si      -3.01587198      -0.87340465      -1.93509411       0.00000000
