10
Lattice="16.2900001489832 0.0 0.0 0.0 16.2900001489832 0.0 0.0 0.0 28.96283823314758" Properties=species:S:1:pos:R:3:initial_magmoms:R:1 pbc="T T T"
Si       2.24951056       0.45789561      -0.50516982       0.00000000
Si      -0.41547645      -2.28257111      -0.40229382       0.00000000
Si      -1.34353405       1.32559876      -1.44148046       0.00000000
Si      -0.45916623       0.43277643       2.29084465       0.00000000
Si      -0.79886161       3.50890339      -0.74970307       0.00000000
Si       0.01554066      -2.70935282      -2.68074238       0.00000000
Si       3.62859753      -0.88554070       0.82593326       0.00000000
Si      -3.60836535       0.88418863      -0.92458068       0.00000000
Si      -2.70430292      -2.71753040      -0.01766733       0.00000000
Si       2.71238765       2.72671797      -0.01946303       0.00000000
