10
Lattice="16.2900001489832 0.0 0.0 0.0 16.2900001489832 0.0 0.0 0.0 28.96283823314758" Properties=species:S:1:pos:R:3:initial_magmoms:R:1 pbc="T T T"
Si      -1.39446474       1.84096550       0.10779968       0.00000000
Si       1.87812299       0.59590450       1.21131278       0.00000000
Si       0.33850620      -0.14978655      -2.30277734       0.00000000
Si      -0.76374037      -1.91778914       1.10357103       0.00000000
H       -1.80737226      -0.45871011      -1.65519724       0.00000000
Si       2.95137336      -1.53875341       1.06869977       0.00000000
Si       0.93165769       0.53136351       3.37510326       0.00000000
Si      -3.27896526       1.04171293      -0.95895957       0.00000000
Si      -0.80093044      -1.20187621       3.34450402       0.00000000
Si       1.18351738      -3.31284846       1.17965640       0.00000000
