10
Lattice="16.2900001489832 0.0 0.0 0.0 16.2900001489832 0.0 0.0 0.0 28.96283823314758" Properties=species:S:1:pos:R:3:initial_magmoms:R:1 pbc="T T T"
Si      -0.44623523      -2.24073839      -0.54780312       0.00000000
Si      -1.32207524       1.29420793      -1.48440339       0.00000000
Si       2.28718607       0.45786303      -0.43791811       0.00000000
Si      -0.42604378       0.35101692       2.33090026       0.00000000
Si      -0.86672901       3.54538821      -1.01624807       0.00000000
Si       0.05958068       2.57851154       2.77660938       0.00000000
Si       0.93873244      -3.58490775       0.84215245       0.00000000
Si      -3.58887763       0.85129912      -0.99739326       0.00000000
Si      -2.68287669      -2.76495060      -0.03530570       0.00000000
Si       2.75519777       2.70726770       0.04500825       0.00000000
