10
Lattice="16.2900001489832 0.0 0.0 0.0 16.2900001489832 0.0 0.0 0.0 28.96283823314758" Properties=species:S:1:pos:R:3:initial_magmoms:R:1 pbc="T T T"
Si      -1.87559625       0.72628966       1.25173911       0.00000000
Si       0.80277121      -1.87317083       1.20888280       0.00000000
Si       1.71874163       1.78062734      -0.16956004       0.00000000
Si      -0.57552408       2.13969152       2.62681358       0.00000000
Si       2.16673292      -0.60817087       2.61829850       0.00000000
Si       3.43860726       0.78788215       1.19223496       0.00000000
Si       0.82686412       3.46693557       1.24698631       0.00000000
Si       2.22298229      -3.22383990      -0.06614533       0.00000000
Si      -2.76232791       1.90034255      -2.16925866       0.00000000
H       -0.11007153      -3.50182875      -1.95675831       0.00000000
