10
Lattice="16.2900001489832 0.0 0.0 0.0 16.2900001489832 0.0 0.0 0.0 28.96283823314758" Properties=species:S:1:pos:R:3:initial_magmoms:R:1 pbc="T T T"
Si      -1.33603902      -1.36825787      -1.34535280       0.00000000
Si       1.32038759      -1.38858380       1.34720642       0.00000000
Si      -1.31779559       1.34346563       1.45824994       0.00000000
Si       1.36251353       1.32737111      -1.44289964       0.00000000
Si       1.91906139       0.66544325       2.59892236       0.00000000
H       -1.25939636      -1.40835522       2.93045997       0.00000000
Si       0.25461922       2.51465148       2.75451073       0.00000000
Si      -0.17400001      -2.67843766       2.65765900       0.00000000
Si      -2.66579174      -0.02162498      -2.71112440       0.00000000
Si      -2.43677062      -0.14277371       2.93361692       0.00000000
