10
Lattice="16.2900001489832 0.0 0.0 0.0 16.2900001489832 0.0 0.0 0.0 28.96283823314758" Properties=species:S:1:pos:R:3:initial_magmoms:R:1 pbc="T T T"
Si      -2.26370729      -0.44378847       0.50320035       0.00000000
Si       0.45678789       2.25210881       0.56086536       0.00000000
Si       1.35474157      -1.34908894       1.43284953       0.00000000
Si       0.23105736      -0.04800663      -2.42056921       0.00000000
Si      -0.28510270       2.30477438      -2.95079188       0.00000000
Si      -0.89422978       3.54356373      -0.89721080       0.00000000
Si       2.74678725       2.66180231       0.06791786       0.00000000
Si       0.90433936      -3.60914727       0.92672394       0.00000000
Si      -3.60738795       0.95322565      -0.91015719       0.00000000
Si       3.61563069      -0.89564050       0.93720848       0.00000000
