10
Lattice="16.2900001489832 0.0 0.0 0.0 16.2900001489832 0.0 0.0 0.0 28.96283823314758" Properties=species:S:1:pos:R:3:initial_magmoms:R:1 pbc="T T T"
Si      -0.45678789      -2.25210881      -0.56086536       0.00000000
Si      -1.35101768       1.29145492      -1.45807617       0.00000000
Si      -0.42932295       0.46462338       2.28707948       0.00000000
Si       2.28999935       0.40969350      -0.49294751       0.00000000
Si      -0.74189059       0.05266557      -3.51165725       0.00000000
Si      -0.22573053      -2.30011544      -2.98143457       0.00000000
Si       0.89795368      -3.60119775       0.87198417       0.00000000
Si       0.00089595       2.74838367       2.65513923       0.00000000
Si      -3.61216092       0.92457154      -0.85153641       0.00000000
Si       2.71006958       2.70606224      -0.06710690       0.00000000
