10
Lattice="16.2900001489832 0.0 0.0 0.0 16.2900001489832 0.0 0.0 0.0 28.96283823314758" Properties=species:S:1:pos:R:3:initial_magmoms:R:1 pbc="T T T"
Si       0.43021890       2.28376028       0.36805975       0.00000000
Si      -2.25657227      -0.47913777       0.49816082       0.00000000
Si       1.33867963      -1.33721353       1.42193054       0.00000000
Si       0.42932295      -0.46462338      -2.28707948       0.00000000
Si      -0.02814912       2.68451057       2.62846446       0.00000000
Si       0.87325804      -3.58674852       0.90297441       0.00000000
Si      -3.61385508       0.88672987      -0.86016733       0.00000000
Si       3.60645942      -0.90036460       0.94966250       0.00000000
Si       2.69579954       2.73960335      -0.07165406       0.00000000
Si      -2.72614781      -2.73452088      -0.01448142       0.00000000
