10
Lattice="16.2900001489832 0.0 0.0 0.0 16.2900001489832 0.0 0.0 0.0 28.96283823314758" Properties=species:S:1:pos:R:3:initial_magmoms:R:1 pbc="T T T"
Si       0.86584609      -0.92089000       0.90474114       0.00000000
Si      -1.09512784       1.08709687      -1.26831165       0.00000000
Si      -2.97663752       0.09708840      -0.33895210       0.00000000
Si       3.05942493      -0.26722116       0.38810203       0.00000000
Si      -0.22485087       3.06546852      -0.37472120       0.00000000
Si       0.62016031      -0.09759339       3.10771254       0.00000000
Si       0.27548019      -3.14704884       0.33614270       0.00000000
Si      -0.30167451       0.22734324      -3.29287197       0.00000000
H       -1.96887458       2.04524210      -2.12242575       0.00000000
Si      -1.32709744       1.29746593       3.03162717       0.00000000
