10
Lattice="16.2900001489832 0.0 0.0 0.0 16.2900001489832 0.0 0.0 0.0 28.96283823314758" Properties=species:S:1:pos:R:3:initial_magmoms:R:1 pbc="T T T"
Si       0.94521097      -1.03355164       0.58170007       0.00000000
Si       2.33305382       0.27798885       1.89061298       0.00000000
Si       2.15383124      -1.81664453      -1.25551007       0.00000000
Si      -0.47362687      -2.45041024       1.81533857       0.00000000
Si       0.15752430      -2.41875714      -2.29405953       0.00000000
Si      -1.02198574       1.12493854      -3.08057436       0.00000000
Si       0.91284274       1.62865792       3.16564112       0.00000000
Si      -1.92854054      -1.11899269       3.09913954       0.00000000
Si       0.11007153       3.50182875       1.95675831       0.00000000
Si       3.76015557       1.52182810       0.52050623       0.00000000
