10
Lattice="16.2900001489832 0.0 0.0 0.0 16.2900001489832 0.0 0.0 0.0 28.96283823314758" Properties=species:S:1:pos:R:3:initial_magmoms:R:1 pbc="T T T"
Si       1.27958570       1.36202320       1.43905627       0.00000000
Si      -1.35628293       1.37764531      -1.36395273       0.00000000
Si       1.88115912      -0.87975775      -1.16859260       0.00000000
Si      -1.38927018      -1.39676977       1.36670710       0.00000000
Si       2.63237247       2.68216568       0.01766154       0.00000000
Si      -2.72236234       2.68942266       0.07533813       0.00000000
Si       2.65584636      -0.04062726       2.77227364       0.00000000
Si       2.68782363      -2.74111833       0.07817070       0.00000000
Si       3.61374724       0.85348198      -1.13799336       0.00000000
Si      -0.06075551       2.70549975       2.81499383       0.00000000
