10
Lattice="16.2900001489832 0.0 0.0 0.0 16.2900001489832 0.0 0.0 0.0 28.96283823314758" Properties=species:S:1:pos:R:3:initial_magmoms:R:1 pbc="T T T"
Si       1.21746574      -1.23792598      -1.62551033       0.00000000
Si      -0.86345146      -1.82552258       1.31245101       0.00000000
Si       1.80424784       0.94926718       1.30295120       0.00000000
Si      -1.36029646       1.37741725      -1.49063040       0.00000000
Si       2.50400108      -2.62402580      -0.27755088       0.00000000
Si       3.43012017      -0.90841186       1.10029822       0.00000000
Si      -2.69285105      -2.72344367      -0.00301214       0.00000000
Si       2.73628019       2.75019186      -0.00970255       0.00000000
Si       0.79076548      -3.70160931       1.00324375       0.00000000
Si       2.60071481       0.12180033      -2.95166077       0.00000000
