10
Lattice="16.2900001489832 0.0 0.0 0.0 16.2900001489832 0.0 0.0 0.0 28.96283823314758" Properties=species:S:1:pos:R:3:initial_magmoms:R:1 pbc="T T T"
Si      -2.25293308      -0.43329771       0.47982734       0.00000000
Si       0.42898086       2.26393535       0.44405824       0.00000000
Si       1.38702835      -1.33309216       1.35916807       0.00000000
Si      -0.01135413      -0.46911942      -2.34457072       0.00000000
Si      -2.29326712       0.30665925      -2.83386891       0.00000000
Si       2.47479311      -0.05680323      -2.74573499       0.00000000
Si      -0.06273279      -2.82704808      -2.45564320       0.00000000
Si      -3.53359425       0.97969690      -0.90300337       0.00000000
Si      -2.67405891      -2.74769949      -0.03180120       0.00000000
Si       2.69695613       2.72479574       0.08051669       0.00000000
