10
Lattice="16.2900001489832 0.0 0.0 0.0 16.2900001489832 0.0 0.0 0.0 28.96283823314758" Properties=species:S:1:pos:R:3:initial_magmoms:R:1 pbc="T T T"
Si       1.51713658      -1.30334662       1.27132378       0.00000000
Si       0.71373007       2.21607533       0.56295069       0.00000000
Si      -2.48614724      -0.41231619       0.40116427       0.00000000
Si      -1.57411900      -1.07062768      -1.77779694       0.00000000
Si       0.89503777       1.80644699      -1.91951210       0.00000000
Si      -0.49669839       0.45251991      -3.23824805       0.00000000
Si      -2.47479311       0.05680323       2.74573499       0.00000000
Si      -2.53752590      -2.77024485       0.29009179       0.00000000
Si      -0.41000301       3.68556203      -0.87279513       0.00000000
Si       1.18245853      -3.58855671       0.71645373       0.00000000
