10
Lattice="16.2900001489832 0.0 0.0 0.0 16.2900001489832 0.0 0.0 0.0 28.96283823314758" Properties=species:S:1:pos:R:3:initial_magmoms:R:1 pbc="T T T"
Si      -1.94108384       1.36248095       0.01477105       0.00000000
Si      -0.07794765      -1.34250778       1.98566323       0.00000000
Si       0.02217069      -0.67038238      -2.30512333       0.00000000
Si       2.09754929       1.10437079       0.39841280       0.00000000
H       -1.20805012      -2.58649364       1.59798984       0.00000000
Si       3.38312352      -0.51908085      -0.71497662       0.00000000
Si       2.27084231      -0.14041980      -2.80345793       0.00000000
Si      -1.96691978       2.04678965       2.25201128       0.00000000
Si      -1.17108811       0.15166316       3.47674544       0.00000000
Si      -1.62919549       3.33334128      -1.27700050       0.00000000
