10
Lattice="10.86 0.0 0.0 0.0 10.86 0.0 0.0 0.0 10.86" Properties=species:S:1:pos:R:3:initial_magmoms:R:1 pbc="T T T"
Si      -1.48446426      -1.20676320       1.08367596       0.00000000
Si       1.23053574       1.50823680       1.08367596       0.00000000
Si       1.23053574      -1.20676320      -1.63132404       0.00000000
Si      -0.12696426      -2.56426320       2.44117596       0.00000000
Si       2.58803574       0.15073680       2.44117596       0.00000000
Si      -0.06022956       2.51794530       2.53607064       0.00000000
Si       2.58803574      -2.56426320      -0.27382404       0.00000000
Si      -2.84196426      -2.56426320      -0.27382404       0.00000000
Si       2.58803574       2.86573680      -0.27382404       0.00000000
Si      -2.69124918       0.06981894       2.82493578       0.00000000
