10
Lattice="10.86 0.0 0.0 0.0 10.86 0.0 0.0 0.0 10.86" Properties=species:S:1:pos:R:3:initial_magmoms:R:1 pbc="T T T"
Si      -1.18026480      -0.85635444      -1.71350166       0.00000000
Si      -1.09530702       1.83494904       1.02782298       0.00000000
Si       0.22917858      -1.84223610       1.55248044       0.00000000
Si       1.53881856       1.55873580      -1.25553546       0.00000000
Si      -2.31147498       0.23047092       2.35387242       0.00000000
Si      -2.31147498      -2.48452908      -0.36112758       0.00000000
Si      -2.31147498       2.94547092      -0.36112758       0.00000000
Si       0.40352502       2.94547092       2.35387242       0.00000000
Si      -0.68110662      -0.98002812       3.64710294       0.00000000
Si      -2.31147498       0.23047092      -3.07612758       0.00000000
