10
Lattice="10.86 0.0 0.0 0.0 10.86 0.0 0.0 0.0 10.86" Properties=species:S:1:pos:R:3:initial_magmoms:R:1 pbc="T T T"
Si       1.08463164       1.21049904       1.42176948       0.00000000
Si      -1.63036836       1.21049904      -1.29323052       0.00000000
Si       0.91028520      -0.86220798      -2.09462250       0.00000000
Si      -1.63036836      -1.50450096       1.42176948       0.00000000
Si       2.31742626       2.37074886      -0.04444998       0.00000000
Si       2.44213164      -0.14700096       2.77926948       0.00000000
Si      -0.27286836       2.56799904       2.77926948       0.00000000
Si       0.68110662       0.98002812      -3.64710294       0.00000000
Si      -0.41420040       2.81497716      -2.61927996       0.00000000
Si      -0.00561462      -2.84842596      -2.71705254       0.00000000
