10
Lattice="16.28999089631971 0.0 0.0 0.0 16.28999089631971 0.0 0.0 0.0 34.35334932831803" Properties=species:S:1:pos:R:3:initial_magmoms:R:1 pbc="T T T"
Si       1.96978680       0.42190611       1.12703096       0.00000000
Si      -1.66614120       1.57302593       0.52296133       0.00000000
Si      -1.23844725      -1.96173207       0.54900118       0.00000000
Si       0.72347148      -0.43860858      -2.38594450       0.00000000
Si       2.95663500      -1.53615582       0.45985419       0.00000000
Si      -2.81434185      -1.48094901      -1.19635606       0.00000000
Si       2.27747232      -2.07178731      -1.75332722       0.00000000
Si      -3.38328639       0.80258224      -1.04427370       0.00000000
Si      -0.69454044       3.69424457       0.18846258       0.00000000
Si       1.53078759       0.79213709       3.38291361       0.00000000
