10
Lattice="16.28999089631971 0.0 0.0 0.0 16.28999089631971 0.0 0.0 0.0 34.35334932831803" Properties=species:S:1:pos:R:3:initial_magmoms:R:1 pbc="T T T"
Si      -0.68261616      -2.21748928      -0.27194127       0.00000000
Si      -1.76054175       1.34330598      -0.80139538       0.00000000
Si       2.24438733      -0.25216920      -0.74258241       0.00000000
Si       0.49919076       1.02187170       2.10369723       0.00000000
Si       2.87192700      -1.96716411       0.85965869       0.00000000
Si       3.11020083       1.91762622      -0.53893565       0.00000000
Si       1.04814747      -3.51610595       0.68084941       0.00000000
Si       2.39420646       2.45042325       1.62910544       0.00000000
Si      -1.71825291       3.37678668       0.34872104       0.00000000
Si      -1.18433187       2.66238873       2.49896709       0.00000000
