10
Lattice="16.28999089631971 0.0 0.0 0.0 16.28999089631971 0.0 0.0 0.0 34.35334932831803" Properties=species:S:1:pos:R:3:initial_magmoms:R:1 pbc="T T T"
Si       1.35278676       1.34125344       1.36523035       0.00000000
Si       1.32023934      -1.36928853      -1.38411783       0.00000000
Si      -1.36093176      -1.37503890       1.36083312       0.00000000
Si      -1.27425267       1.43982423      -1.47193191       0.00000000
Si      -2.19300867      -0.39096000      -2.63568559       0.00000000
Si      -0.57184416      -2.20516101      -2.59711260       0.00000000
Si       2.70933651       2.69847108      -0.00017520       0.00000000
Si      -2.71692765       2.69145009      -0.01127134       0.00000000
Si      -0.00337203       2.69801496       2.72057380       0.00000000
Si       2.70941796      -0.01304829       2.72139828       0.00000000
