10
Lattice="16.28999089631971 0.0 0.0 0.0 16.28999089631971 0.0 0.0 0.0 34.35334932831803" Properties=species:S:1:pos:R:3:initial_magmoms:R:1 pbc="T T T"
Si       1.35694071      -1.35431802       1.35963762       0.00000000
Si      -1.36792017      -1.35487188      -1.35468043       0.00000000
Si      -1.36037790       1.35767376       1.35974068       0.00000000
Si       1.36093176       1.37503890      -1.36083312       0.00000000
Si      -2.58932808       0.12167001      -2.73634199       0.00000000
Si       2.71396287      -2.71168227      -0.00123672       0.00000000
Si      -2.71463076      -2.71107954       0.00271392       0.00000000
Si       2.68117110       0.00575037      -2.74495095       0.00000000
Si      -0.00120546      -2.71246419       2.71700792       0.00000000
Si       2.71371852       2.71629234       0.00439723       0.00000000
