10
Lattice="16.28999089631971 0.0 0.0 0.0 16.28999089631971 0.0 0.0 0.0 34.35334932831803" Properties=species:S:1:pos:R:3:initial_magmoms:R:1 pbc="T T T"
Si       1.35586557       1.35754344       1.35651146       0.00000000
Si       1.35690813      -1.35715248      -1.35743900       0.00000000
Si      -1.35795069       1.35698958      -1.35692370       0.00000000
Si      -1.35788553      -1.35795069       1.35692370       0.00000000
Si      -0.00226431       2.71298547      -2.71470624       0.00000000
Si       0.00027693      -2.71389771      -2.71453447       0.00000000
Si       2.71446786      -2.71464705       0.00061836       0.00000000
Si      -2.71580364      -0.00089595      -2.71343517       0.00000000
Si       0.00037467      -2.71415835       2.71508413       0.00000000
Si       2.71461447       2.71487511       0.00020612       0.00000000
