10
Lattice="16.28999089631971 0.0 0.0 0.0 16.28999089631971 0.0 0.0 0.0 34.35334932831803" Properties=species:S:1:pos:R:3:initial_magmoms:R:1 pbc="T T T"
Si       1.35734796      -1.35801585      -1.36145835       0.00000000
Si      -1.35962856       1.35729909      -1.36248895       0.00000000
Si      -1.36645407      -1.35363384       1.37588676       0.00000000
Si       1.35729909       1.37821545       1.37997481       0.00000000
Si       2.71412577       2.71044423      -0.00247344       0.00000000
Si      -2.71511946      -2.71440270      -0.00391628       0.00000000
Si      -2.71443528       2.71515204      -0.00003435       0.00000000
Si      -0.00102627      -2.71489140      -2.71838205       0.00000000
Si       2.71458189      -0.00019548      -2.71872559       0.00000000
Si       2.71640637      -2.71700910      -0.00553089       0.00000000
