10
Lattice="16.28999089631971 0.0 0.0 0.0 16.28999089631971 0.0 0.0 0.0 34.35334932831803" Properties=species:S:1:pos:R:3:initial_magmoms:R:1 pbc="T T T"
Si      -0.62672517      -0.28419534      -2.23925562       0.00000000
Si      -1.99135476      -0.38071359       1.21397934       0.00000000
Si       1.11563694       2.05838811       0.33851809       0.00000000
Si       1.23644358      -2.09868957       0.24064535       0.00000000
Si      -1.39512447      -2.46477474      -1.76277440       0.00000000
Si      -2.22376419      -2.59255350       0.44882676       0.00000000
Si       2.34991395       1.94110011      -1.64703790       0.00000000
Si      -1.07383680       0.17754471       3.36010298       0.00000000
Si       2.90287800      -0.30786471      -2.13540539       0.00000000
Si      -0.53548488       3.58552674      -0.24112629       0.00000000
