10
Lattice="16.28999089631971 0.0 0.0 0.0 16.28999089631971 0.0 0.0 0.0 34.35334932831803" Properties=species:S:1:pos:R:3:initial_magmoms:R:1 pbc="T T T"
Si       1.35749457      -1.35713619      -1.35761077       0.00000000
Si      -1.35874890      -1.35733167       1.35630534       0.00000000
Si      -1.35726651       1.35793440      -1.35757642       0.00000000
Si       1.35817875       1.35742941       1.35771383       0.00000000
Si       2.71384884       0.00242721      -2.71408788       0.00000000
Si       0.00105885       2.71349046      -2.71491236       0.00000000
Si       0.00043983      -2.71388142      -2.71501542       0.00000000
Si      -2.71461447      -2.71487511      -0.00020612       0.00000000
Si      -2.71458189       2.71533123      -0.00044659       0.00000000
Si       2.71546155      -2.71482624       0.00006871       0.00000000
