10
Lattice="16.28999089631971 0.0 0.0 0.0 16.28999089631971 0.0 0.0 0.0 34.35334932831803" Properties=species:S:1:pos:R:3:initial_magmoms:R:1 pbc="T T T"
Si      -1.34881200      -1.33520985      -1.35712982       0.00000000
Si      -1.44995661       1.27861839       1.33002502       0.00000000
Si       1.36482507       1.38440963      -1.35293871       0.00000000
Si       1.27975869      -1.46772900       1.36911915       0.00000000
Si       0.45217782       2.18162915       2.39961714       0.00000000
Si       1.99141992       0.38934729       2.76173600       0.00000000
Si      -2.70844056      -2.68346799       0.04338830       0.00000000
Si       0.00597843      -2.69045640      -2.71264504       0.00000000
Si      -2.70798444       0.02215440      -2.71154573       0.00000000
Si       2.72220561       0.02231730      -2.71154573       0.00000000
