10
Lattice="16.28999089631971 0.0 0.0 0.0 16.28999089631971 0.0 0.0 0.0 34.35334932831803" Properties=species:S:1:pos:R:3:initial_magmoms:R:1 pbc="T T T"
Si      -1.45018467       1.61572284      -1.00057621       0.00000000
Si       1.49161407      -0.49669010      -1.80502904       0.00000000
Si      -0.46317357      -2.04961580       1.21926976       0.00000000
Si       1.12624240       0.98407320       1.94872918       0.00000000
Si       0.29550060       3.25149948      -0.76350362       0.00000000
Si       3.37439924       0.43164020       0.87285039       0.00000000
Si       0.22099014       3.18788703       1.65129772       0.00000000
Si       2.46222440      -2.53373831      -1.16969784       0.00000000
Si       3.36664520       0.87246878      -1.41776352       0.00000000
Si      -1.67055579       0.96221691      -3.25281741       0.00000000
