10
Lattice="16.28999089631971 0.0 0.0 0.0 16.28999089631971 0.0 0.0 0.0 34.35334932831803" Properties=species:S:1:pos:R:3:initial_magmoms:R:1 pbc="T T T"
Si       1.35682668       1.33222878      -1.38244826       0.00000000
Si      -1.35729909      -1.37821545      -1.37997481       0.00000000
Si       1.33475373      -1.35420399       1.48231350       0.00000000
Si      -1.29829671       1.44821358       1.51865936       0.00000000
Si      -2.30542596      -0.23550453       2.95906175       0.00000000
Si       2.70531288       2.68859934      -0.00360710       0.00000000
Si      -0.31455990      -2.44389096       2.91539862       0.00000000
Si      -2.73478149       2.68993512       0.00652714       0.00000000
Si       0.00000000       2.69384472      -2.74105527       0.00000000
Si       2.70752832      -2.73595437      -0.00041224       0.00000000
