10
Lattice="16.28999089631971 0.0 0.0 0.0 16.28999089631971 0.0 0.0 0.0 34.35334932831803" Properties=species:S:1:pos:R:3:initial_magmoms:R:1 pbc="T T T"
Si       1.81985364       0.11495853       1.44294454       0.00000000
Si      -0.91054584       2.14897680       0.06479045       0.00000000
Si       0.71599437      -0.53279703      -2.16804109       0.00000000
Si      -1.89501570      -1.42855155       0.47459179       0.00000000
Si      -2.18465190       2.10342996      -1.88228977       0.00000000
Si      -0.64943343       1.08317097      -3.34179263       0.00000000
Si      -0.14981913      -2.70259245      -2.37168786       0.00000000
Si       2.44377693      -2.12830479       1.71986704       0.00000000
Si      -3.57853833       0.21196548       0.86986164       0.00000000
Si       1.05661827       1.46311893       3.22897617       0.00000000
