10
Lattice="16.28999089631971 0.0 0.0 0.0 16.28999089631971 0.0 0.0 0.0 34.35334932831803" Properties=species:S:1:pos:R:3:initial_magmoms:R:1 pbc="T T T"
Si      -1.34721558       1.21373532      -1.47365645       0.00000000
Si      -0.90486063       0.11679930       2.15928098       0.00000000
Si       2.27444238       0.59673528      -0.10522437       0.00000000
Si      -0.29986632      -2.04714801      -1.13314586       0.00000000
Si      -0.15729624       3.16811178      -0.90184463       0.00000000
Si      -0.15286536      -3.52554696       0.65470650       0.00000000
Si       2.05921890       2.94239754       0.06190477       0.00000000
Si       2.66800878      -0.42472917      -2.37100079       0.00000000
Si       1.84777470      -2.58743844      -1.91860128       0.00000000
Si      -3.50313192       1.18576539      -0.37572279       0.00000000
