10
Lattice="16.28999089631971 0.0 0.0 0.0 16.28999089631971 0.0 0.0 0.0 34.35334932831803" Properties=species:S:1:pos:R:3:initial_magmoms:R:1 pbc="T T T"
Si       0.14700096      -1.47839895       1.78785236       0.00000000
Si       2.14764102      -0.54029043      -0.78545542       0.00000000
Si       0.29986632       2.04714801       1.13314586       0.00000000
Si      -1.49157756       1.39025376      -2.41119423       0.00000000
Si      -1.04734926       3.26088333      -0.34051059       0.00000000
Si       2.96787510       1.62241884      -1.23785493       0.00000000
Si      -1.91262519      -1.54067562       2.76891586       0.00000000
Si       2.57430870       2.64388329       1.02792149       0.00000000
Si      -0.60499431       2.16394731       3.29242684       0.00000000
Si       3.68676650      -1.23955497       0.99755312       0.00000000
