10
Lattice="16.28999089631971 0.0 0.0 0.0 16.28999089631971 0.0 0.0 0.0 34.35334932831803" Properties=species:S:1:pos:R:3:initial_magmoms:R:1 pbc="T T T"
Si       1.35581574       1.35748547       1.35754206       0.00000000
Si      -1.35892809      -1.35778779       1.35750771       0.00000000
Si      -1.35848826       1.35530586      -1.36049645       0.00000000
Si       1.35426819      -1.36195803      -1.35867573       0.00000000
Si       0.00301245      -2.69182476      -2.72253537       0.00000000
Si       0.02984020       2.71190123      -2.70331466       0.00000000
Si       2.71336733       0.00011672       2.71501542       0.00000000
Si       2.71260170      -2.71652040       0.00082448       0.00000000
Si      -0.00146650       2.71473569       2.71546202       0.00000000
Si      -0.00173281      -2.71533123       2.71518719       0.00000000
