10
Lattice="16.28999089631971 0.0 0.0 0.0 16.28999089631971 0.0 0.0 0.0 34.35334932831803" Properties=species:S:1:pos:R:3:initial_magmoms:R:1 pbc="T T T"
Si       1.35719528      -1.35754344       1.35767948       0.00000000
Si      -1.35725022       1.35753383       1.35774818       0.00000000
Si      -1.35773892      -1.35790182      -1.35767948       0.00000000
Si       1.35892809       1.35778779      -1.35750771       0.00000000
Si      -2.71282257       0.00185706      -2.71529025       0.00000000
Si      -0.00128691      -2.71391400       2.71484365       0.00000000
Si      -2.71466334       2.71442129       0.00030918       0.00000000
Si       2.71319628      -0.00417024      -2.71618344       0.00000000
Si       2.71444410      -2.71511946       0.00072142       0.00000000
Si      -2.71451673      -0.00140094       2.71535896       0.00000000
