10
Lattice="16.28999089631971 0.0 0.0 0.0 16.28999089631971 0.0 0.0 0.0 34.35334932831803" Properties=species:S:1:pos:R:3:initial_magmoms:R:1 pbc="T T T"
Si      -1.35462753       1.35643572       1.35510297       0.00000000
Si      -1.35599589      -1.35861858      -1.35730159       0.00000000
Si       1.35848219       1.35637056      -1.35716418       0.00000000
Si       1.35835794      -1.35733167       1.36503110       0.00000000
Si      -0.00242721       2.68995141       2.72556191       0.00000000
Si      -2.69373069      -0.01278765       2.72786358       0.00000000
Si      -2.71322982       2.71251306       0.00051530       0.00000000
Si      -2.71376739      -0.00100998      -2.71480930       0.00000000
Si       0.00128691       2.71391400      -2.71484365       0.00000000
Si       2.71695276       2.71244790       0.00058401       0.00000000
