10
Lattice="16.28999089631971 0.0 0.0 0.0 16.28999089631971 0.0 0.0 0.0 34.35334932831803" Properties=species:S:1:pos:R:3:initial_magmoms:R:1 pbc="T T T"
Si      -1.17705024      -0.64827684       1.88211800       0.00000000
Si      -1.51042509       1.85949782       0.31227212       0.00000000
Si       2.32320554       0.86884344      -1.10696859       0.00000000
Si       0.36654129      -2.52584595      -0.97072313       0.00000000
Si       2.52456134       0.12497688       1.25812342       0.00000000
Si       0.64839087       2.71056056      -1.29783591       0.00000000
Si       1.61673363      -0.97865433      -2.44015412       0.00000000
Si       1.03946490      -0.87399108       2.84586740       0.00000000
Si      -1.15979913       1.64840139      -2.52311750       0.00000000
Si      -3.13237152       0.79576650      -1.15471978       0.00000000
