10
Lattice="16.28999089631971 0.0 0.0 0.0 16.28999089631971 0.0 0.0 0.0 34.35334932831803" Properties=species:S:1:pos:R:3:initial_magmoms:R:1 pbc="T T T"
Si      -0.28549854      -1.25084394      -2.03241399       0.00000000
Si       0.70996122      -1.16468613       2.00537789       0.00000000
Si      -2.42079174       0.10529856       0.15840338       0.00000000
Si       1.32834591       2.06479401      -0.18093919       0.00000000
Si       0.37347710       1.79611652      -2.75496839       0.00000000
Si       0.37346635       3.35677346       1.60632916       0.00000000
Si       1.19959790      -0.25187598      -3.62015798       0.00000000
Si       0.31946319      -3.47667696       1.70475156       0.00000000
Si      -3.39587856       0.75240252      -1.86164339       0.00000000
Si      -3.16065096       1.46904753       1.87665582       0.00000000
