10
Lattice="16.28999089631971 0.0 0.0 0.0 16.28999089631971 0.0 0.0 0.0 34.35334932831803" Properties=species:S:1:pos:R:3:initial_magmoms:R:1 pbc="T T T"
Si       0.61154289       1.98985608       1.09793366       0.00000000
Si      -2.25647451       0.59564385      -0.36971095       0.00000000
Si       0.31149738      -1.98697275       1.28512516       0.00000000
Si       1.19093976      -0.51414498      -2.00802310       0.00000000
Si       0.80044173      -2.82613581      -2.30864943       0.00000000
Si       1.90295775       3.19412269      -0.44322716       0.00000000
Si       3.51219635      -0.27948753      -1.32408188       0.00000000
Si       1.50811747      -3.48086349      -0.13256965       0.00000000
Si      -1.37049399       3.18421349       1.68547932       0.00000000
Si      -1.81170864      -2.92227939       1.77548515       0.00000000
