10
Lattice="16.28999089631971 0.0 0.0 0.0 16.28999089631971 0.0 0.0 0.0 34.35334932831803" Properties=species:S:1:pos:R:3:initial_magmoms:R:1 pbc="T T T"
Si       1.35133695       1.36085031      -1.36455015       0.00000000
Si      -1.36366848      -1.35604476      -1.36540899       0.00000000
Si       1.17455787      -1.31193144       1.57455229       0.00000000
Si      -1.21813362       1.39256694       1.46881262       0.00000000
Si      -0.75191382      -1.98957915       2.97249392       0.00000000
Si      -2.48688027      -0.09032805       2.78530241       0.00000000
Si       2.14140195       0.30144645       3.10695300       0.00000000
Si       2.70558981      -2.70471015       0.03892237       0.00000000
Si      -2.70828581      -2.71855665       0.00443158       0.00000000
Si      -2.70575923       2.72642472       0.02253581       0.00000000
