10
Lattice="16.28999089631971 0.0 0.0 0.0 16.28999089631971 0.0 0.0 0.0 34.35334932831803" Properties=species:S:1:pos:R:3:initial_magmoms:R:1 pbc="T T T"
Si       1.34321476       1.35179307      -1.38571183       0.00000000
Si      -1.37254720      -1.36361961      -1.38000917       0.00000000
Si      -1.42581550       1.29883428       1.44332243       0.00000000
Si       1.48762561      -1.33385778       1.44627681       0.00000000
Si       2.69124484       2.69159670      -0.00223297       0.00000000
Si      -2.73333235       2.68366347      -0.01947836       0.00000000
Si       2.70575923      -2.72642472      -0.02253581       0.00000000
Si       2.69917807      -0.00796581      -2.74469673       0.00000000
Si      -0.01395238       2.70615996      -2.74445626       0.00000000
Si      -2.73852886      -2.72808630      -0.00700809       0.00000000
