10
Lattice="16.28999089631971 0.0 0.0 0.0 16.28999089631971 0.0 0.0 0.0 34.35334932831803" Properties=species:S:1:pos:R:3:initial_magmoms:R:1 pbc="T T T"
Si       1.24267532      -1.43089731      -1.36382873       0.00000000
Si       1.46408085       1.19733129       1.41704210       0.00000000
Si      -1.04261524      -1.61771103       1.41034319       0.00000000
Si      -1.49332696       1.28599776      -1.35273259       0.00000000
Si      -0.96932653      -0.11225439       3.40311339       0.00000000
Si      -0.14909245       2.05045488       2.95071388       0.00000000
Si       3.19904730      -0.70191981       1.60423360       0.00000000
Si       2.51781579      -2.68291413       0.25809686       0.00000000
Si       2.58729264      -0.06838542      -2.73366930       0.00000000
Si      -0.12734530       2.65046445      -2.72573367       0.00000000
