10
Lattice="16.28999089631971 0.0 0.0 0.0 16.28999089631971 0.0 0.0 0.0 34.35334932831803" Properties=species:S:1:pos:R:3:initial_magmoms:R:1 pbc="T T T"
Si       0.62107254      -1.55186685       1.66101972       0.00000000
Si       0.89897994       2.17476387       0.16998047       0.00000000
Si       1.43754363      -0.70807743      -1.74625043       0.00000000
Si      -2.31914377      -0.16035876      -0.47462614       0.00000000
Si      -0.31506489       3.04101720      -1.66613837       0.00000000
Si       0.53721162      -3.49723494       0.30516097       0.00000000
Si       3.54574656       0.12647556      -1.03527311       0.00000000
Si       2.64016917      -0.67896720       2.53438541       0.00000000
Si       1.32048369      -3.03595101      -1.86342977       0.00000000
Si      -3.51576386       1.33353198       0.94306867       0.00000000
