10
Lattice="16.28999089631971 0.0 0.0 0.0 16.28999089631971 0.0 0.0 0.0 34.35334932831803" Properties=species:S:1:pos:R:3:initial_magmoms:R:1 pbc="T T T"
Si      -0.35000694      -2.28597570      -0.24171030       0.00000000
Si       1.64449179       0.76918026       1.52405284       0.00000000
Si       0.18450054       0.42985793      -2.32902097       0.00000000
Si      -1.95924554       1.18763452       0.63914442       0.00000000
Si       0.90215649       2.99795363       1.25114968       0.00000000
Si       1.27234674      -2.82279636      -1.88534722       0.00000000
Si       0.86403789      -3.15222903       1.59440854       0.00000000
Si       2.02356009       1.84959008      -2.50295208       0.00000000
Si      -2.67126352      -2.52063315      -0.92565151       0.00000000
Si      -2.05287883       0.70884699      -3.11196859       0.00000000
