10
Lattice="16.28999089631971 0.0 0.0 0.0 16.28999089631971 0.0 0.0 0.0 34.383488856416385" Properties=species:S:1:pos:R:3:initial_magmoms:R:1 pbc="T T T"
Si      -1.60720235       1.72362276       0.11597557       0.00000000
Si       2.10373947       0.38556801       1.01637650       0.00000000
Si       0.50875299       0.17813115      -2.33051418       0.00000000
Si      -1.53948775      -1.94807223       0.32258607       0.00000000
Si      -2.06543258      -0.66798774       2.33818170       0.00000000
Si      -2.21420915      -1.73341890      -1.99070197       0.00000000
Si      -3.11560001       0.47946326      -1.49633589       0.00000000
Si      -2.22008984       1.63302267       2.34289224       0.00000000
Si       3.67396515      -0.57510216      -0.41562785       0.00000000
Si       2.80350900      -0.10790496      -2.54737096       0.00000000
