10
Lattice="16.28999089631971 0.0 0.0 0.0 16.28999089631971 0.0 0.0 0.0 34.383488856416385" Properties=species:S:1:pos:R:3:initial_magmoms:R:1 pbc="T T T"
Si       1.25066475      -1.42382745       1.46242687       0.00000000
Si       1.65025845       0.82767861      -1.57658153       0.00000000
Si      -1.41322266      -1.24284555      -1.53889721       0.00000000
Si      -1.45472958       1.31020470       1.45062645       0.00000000
Si       2.44123569      -1.44500445      -2.04038067       0.00000000
Si       2.76294690       2.50406622      -0.17260865       0.00000000
Si       0.33027975      -2.23497171      -3.02192668       0.00000000
Si       2.50644456      -2.82227508      -0.02068168       0.00000000
Si      -2.70923877      -2.66846490       0.00429794       0.00000000
Si       2.61426807      -0.06056622       2.83404690       0.00000000
