10
Lattice="16.28999089631971 0.0 0.0 0.0 16.28999089631971 0.0 0.0 0.0 34.383488856416385" Properties=species:S:1:pos:R:3:initial_magmoms:R:1 pbc="T T T"
Si       1.00185129      -1.82575062      -1.04969412       0.00000000
Si      -1.33046946      -0.91745280       1.69820146       0.00000000
Si      -1.60930539       1.00737360      -1.38923126       0.00000000
Si       0.63604305       1.11031011       2.10244837       0.00000000
Si       2.06301447       1.81221363       0.33768043       0.00000000
Si       1.70031762      -2.83719672       1.26593200       0.00000000
Si      -0.21999645       2.18245275      -2.80882316       0.00000000
Si       2.46767436      -0.68764977      -2.57298668       0.00000000
Si       1.06864029       3.34420668      -1.24217300       0.00000000
Si      -0.02453274      -2.30272182       3.10338667       0.00000000
