10
Lattice="16.28999089631971 0.0 0.0 0.0 16.28999089631971 0.0 0.0 0.0 34.383488856416385" Properties=species:S:1:pos:R:3:initial_magmoms:R:1 pbc="T T T"
Si      -1.42697142      -0.70190352       1.76476794       0.00000000
Si      -0.99437418       1.53199305      -1.57985343       0.00000000
Si       1.61407836      -1.04075181      -1.51920092       0.00000000
Si       1.87263324      -0.27774450       1.57098248       0.00000000
Si      -2.06301447      -1.81221363      -0.33768043       0.00000000
Si       3.04833141      -2.28716487      -0.16369988       0.00000000
Si       1.44269127       1.84533120       3.04923265       0.00000000
Si       0.40465989      -2.49986340      -2.91066711       0.00000000
Si      -2.28301092       0.37023912      -3.14650359       0.00000000
Si      -1.06116318      -3.63796425      -1.38737455       0.00000000
