10
Lattice="16.28999089631971 0.0 0.0 0.0 16.28999089631971 0.0 0.0 0.0 34.383488856416385" Properties=species:S:1:pos:R:3:initial_magmoms:R:1 pbc="T T T"
Si       1.42697142       0.70190352      -1.76476794       0.00000000
Si      -0.63604305      -1.11031011      -2.10244837       0.00000000
Si      -0.30059937       1.89485280       1.70583460       0.00000000
Si       1.13969727       0.21652668       2.48609955       0.00000000
Si      -1.96651251      -2.02776291      -0.40424690       0.00000000
Si       3.29960466       0.42415902      -0.19378545       0.00000000
Si      -2.58747102       1.70044794       1.28666526       0.00000000
Si       0.57202335      -2.09531754       2.57281476       0.00000000
Si      -3.20404752      -0.57901176       1.50242177       0.00000000
Si      -0.66057579      -3.41303193       1.00093830       0.00000000
