10
Lattice="16.28999089631971 0.0 0.0 0.0 16.28999089631971 0.0 0.0 0.0 34.383488856416385" Properties=species:S:1:pos:R:3:initial_magmoms:R:1 pbc="T T T"
Si       0.16342128       0.19710900      -2.33199267       0.00000000
Si      -1.25475354      -1.86737157       0.73391598       0.00000000
Si      -0.84940947       1.94013900       1.08328681       0.00000000
Si       2.31386418      -0.48948192       0.58029047       0.00000000
Si      -1.23575940      -1.25410194       3.04190896       0.00000000
Si      -0.68685156       1.10526021       3.28881693       0.00000000
Si       2.10838212       1.67425362      -2.39965941       0.00000000
Si       2.72139111      -2.08575531      -1.17973255       0.00000000
Si       1.12831056      -1.81845270      -2.98304439       0.00000000
Si       3.37589073       1.42542387      -0.35408137       0.00000000
