10
Lattice="16.28999089631971 0.0 0.0 0.0 16.28999089631971 0.0 0.0 0.0 34.383488856416385" Properties=species:S:1:pos:R:3:initial_magmoms:R:1 pbc="T T T"
Si       0.77612076       1.81014480       1.33758723       0.00000000
Si      -1.56926457       1.13015133      -1.39913371       0.00000000
Si       1.17621945      -1.58211738      -1.39370112       0.00000000
Si       0.08418672      -0.93726144       2.48211106       0.00000000
Si      -0.19849365       2.48419568      -2.78131635       0.00000000
Si       2.51633259      -0.22807629      -2.78513292       0.00000000
Si      -0.78667668      -3.10107843       2.00895961       0.00000000
Si       2.69610903       2.69911846       0.03458981       0.00000000
Si      -2.94262560       2.51468781       0.06013676       0.00000000
Si      -2.61576675      -2.90838402       0.22259883       0.00000000
