10
Lattice="16.28999089631971 0.0 0.0 0.0 16.28999089631971 0.0 0.0 0.0 34.383488856416385" Properties=species:S:1:pos:R:3:initial_magmoms:R:1 pbc="T T T"
Si      -0.74144912      -1.88512767      -1.17773830       0.00000000
Si      -1.55109633       0.09027918       1.78089380       0.00000000
Si       2.08609740      -0.59367276       1.08438708       0.00000000
Si       0.42020055       2.00746557      -1.33817175       0.00000000
Si       3.08227977       1.45512054       0.62447327       0.00000000
Si       2.66326839       1.47041685      -1.67389232       0.00000000
Si       0.60090552      -1.89811080      -3.10005147       0.00000000
Si       2.66690106      -0.86107311      -2.43531511       0.00000000
Si       0.07571592      -3.74538770       0.00378219       0.00000000
Si       3.28121325      -1.94322433      -0.45926052       0.00000000
