10
Lattice="16.28999089631971 0.0 0.0 0.0 16.28999089631971 0.0 0.0 0.0 34.383488856416385" Properties=species:S:1:pos:R:3:initial_magmoms:R:1 pbc="T T T"
Si       0.49467843       2.27559897       0.69881042       0.00000000
Si      -2.21869800      -0.23286555      -1.01386650       0.00000000
Si       1.63559745      -0.80355312      -1.80375883       0.00000000
Si       0.32959557      -0.83538378       2.56191519       0.00000000
Si      -1.52676396       2.51454069      -2.15839034       0.00000000
Si       2.39555853       2.11551714       2.19762192       0.00000000
Si      -3.98453400      -0.08312787       0.71779011       0.00000000
Si       0.33414048      -2.23591653      -3.38020830       0.00000000
Si       3.64825953      -1.64779866      -0.86388564       0.00000000
Si      -3.08956140      -2.39668254      -1.48701796       0.00000000
