10
Lattice="16.28999089631971 0.0 0.0 0.0 16.28999089631971 0.0 0.0 0.0 34.383488856416385" Properties=species:S:1:pos:R:3:initial_magmoms:R:1 pbc="T T T"
Si       1.53218853       0.37232424       1.71463678       0.00000000
Si      -0.41172975       2.11156911      -0.99619338       0.00000000
Si      -2.09126133      -1.00804149       0.64479393       0.00000000
Si       1.60873524      -1.22653926      -1.45222185       0.00000000
Si       2.85666327       2.02808286       0.66786526       0.00000000
Si       2.38791852      -1.88455752       1.92513262       0.00000000
Si      -3.32850312      -0.64182600      -1.36206829       0.00000000
Si      -1.49537313      -3.28170195       0.59555674       0.00000000
Si       1.73814300       3.02424569      -1.17199626       0.00000000
Si      -0.71278524       1.66446889      -3.32870180       0.00000000
