10
Lattice="16.28999089631971 0.0 0.0 0.0 16.28999089631971 0.0 0.0 0.0 34.383488856416385" Properties=species:S:1:pos:R:3:initial_magmoms:R:1 pbc="T T T"
Si      -1.40553378       1.27332414      -1.42701874       0.00000000
Si      -0.66383379      -1.69859088       1.54423211       0.00000000
Si       1.30948794      -1.41292618      -1.42894421       0.00000000
Si       1.44150210       1.35094599       1.55251854       0.00000000
Si      -2.58010794      -2.58613035       0.03768432       0.00000000
Si       0.98034849      -3.41940851       1.04250796       0.00000000
Si      -2.69255781       2.58942582       0.02702544       0.00000000
Si      -0.04254948       2.63023227      -2.77994101       0.00000000
Si       2.66880699      -0.08557137      -2.78413580       0.00000000
Si       2.83201650      -2.63022738      -0.18835286       0.00000000
