10
Lattice="16.28999089631971 0.0 0.0 0.0 16.28999089631971 0.0 0.0 0.0 34.383488856416385" Properties=species:S:1:pos:R:3:initial_magmoms:R:1 pbc="T T T"
Si      -1.26718281       1.94388570       0.41108922       0.00000000
Si      -0.05100399      -1.05953255       2.13363421       0.00000000
Si       2.21294763       0.88493796      -0.29208790       0.00000000
Si      -0.85149459      -1.06639227      -2.40041585       0.00000000
Si       1.25384130       1.98314460      -2.39212942       0.00000000
Si      -0.23654709       3.43432296      -1.17065530       0.00000000
Si      -0.33620931       2.62278774       2.59255089       0.00000000
Si      -0.76543452      -3.24192896       1.75204604       0.00000000
Si      -3.64757535       1.07207748      -0.07870385       0.00000000
Si       3.69698292      -0.91477472      -0.67934935       0.00000000
