10
Lattice="16.28999089631971 0.0 0.0 0.0 16.28999089631971 0.0 0.0 0.0 34.383488856416385" Properties=species:S:1:pos:R:3:initial_magmoms:R:1 pbc="T T T"
Si       1.28702403      -1.31610168      -1.45404417       0.00000000
Si       1.20941847       1.45911159       1.39146619       0.00000000
Si      -1.46582307      -1.13810085       1.52329256       0.00000000
Si      -1.40437719       1.37608146      -1.44668610       0.00000000
Si      -2.46767436       0.68764977       2.57298668       0.00000000
Si       2.69255781      -2.58942582      -0.02702544       0.00000000
Si       2.64367152       0.21269853       2.74696723       0.00000000
Si      -0.40465989       2.49986340       2.91066711       0.00000000
Si       2.65000833       0.04080645      -2.80696645       0.00000000
Si      -0.07082892      -2.67475284      -2.81023288       0.00000000
