10
Lattice="16.28999089631971 0.0 0.0 0.0 16.28999089631971 0.0 0.0 0.0 34.383488856416385" Properties=species:S:1:pos:R:3:initial_magmoms:R:1 pbc="T T T"
Si       1.43425305      -1.24641306       1.35550104       0.00000000
Si      -1.20941847      -1.45911159      -1.39146619       0.00000000
Si      -1.61407836       1.04075181       1.51920092       0.00000000
Si       1.47895281       1.34832330      -1.45070897       0.00000000
Si       0.25855488       0.76300731       3.09018340       0.00000000
Si      -2.60845254       2.57274486      -0.06065251       0.00000000
Si      -2.67524154      -2.59721244       0.13182637       0.00000000
Si      -2.61379566      -0.08303013      -2.83815229       0.00000000
Si       0.08676054       2.66160681      -2.83113805       0.00000000
Si      -3.67709283      -0.77146182       1.18152049       0.00000000
