10
Lattice="16.28999089631971 0.0 0.0 0.0 16.28999089631971 0.0 0.0 0.0 34.383488856416385" Properties=species:S:1:pos:R:3:initial_magmoms:R:1 pbc="T T T"
Si       0.73531431       2.13433209      -0.61071987       0.00000000
Si      -0.07664445      -0.72260811      -2.25101951       0.00000000
Si       0.98184717      -1.63499472       1.40167809       0.00000000
Si      -2.02277817       0.31354992       1.22020193       0.00000000
Si      -0.85776624       2.40163470      -2.41403172       0.00000000
Si       2.78039349       1.52422272      -1.62104487       0.00000000
Si      -0.57073644      -3.41832618       1.13482768       0.00000000
Si      -3.45189987      -1.24089075       0.11126503       0.00000000
Si      -1.94110011       0.42324678      -3.10833790       0.00000000
Si       2.01448656      -0.07179003      -3.17012506       0.00000000
