10
Lattice="16.28999089631971 0.0 0.0 0.0 16.28999089631971 0.0 0.0 0.0 34.383488856416385" Properties=species:S:1:pos:R:3:initial_magmoms:R:1 pbc="T T T"
Si       0.06520887      -1.37727063       2.01969899       0.00000000
Si      -0.79097724       2.27268306       0.46379914       0.00000000
Si      -2.11095594      -0.78996726      -0.98154600       0.00000000
Si       1.70233758      -0.41031252      -1.82631441       0.00000000
Si      -2.44123569       1.44500445       2.04038067       0.00000000
Si      -0.93853206      -3.27292164       0.97038756       0.00000000
Si      -1.19057094       0.02117700       3.50280755       0.00000000
Si      -1.88133210      -0.30442752      -3.30439266       0.00000000
Si      -1.42601031       3.02785488      -1.85368369       0.00000000
Si      -3.85445835       0.20215890       0.50148347       0.00000000
