10
Lattice="16.28999089631971 0.0 0.0 0.0 16.28999089631971 0.0 0.0 0.0 34.383488856416385" Properties=species:S:1:pos:R:3:initial_magmoms:R:1 pbc="T T T"
Si       1.32113529       1.36580247       1.39321975       0.00000000
Si      -1.22899905       1.20275586      -1.62106894       0.00000000
Si      -1.37767788      -1.36187658       1.38558661       0.00000000
Si       2.04859782      -0.87364899      -1.30612632       0.00000000
Si       2.69565291       2.71345788       0.04073758       0.00000000
Si       2.70205488      -2.71107954       0.02010060       0.00000000
Si       2.69030979       0.00110772       2.74631394       0.00000000
Si      -2.74367583       2.70677898      -0.01443420       0.00000000
Si      -2.34168750      -0.47363175      -3.02504182       0.00000000
Si       0.30921678       2.43902025      -2.97831464       0.00000000
