10
Lattice="16.28999089631971 0.0 0.0 0.0 16.28999089631971 0.0 0.0 0.0 34.383488856416385" Properties=species:S:1:pos:R:3:initial_magmoms:R:1 pbc="T T T"
Si       1.35384561       1.35498591       1.37320167       0.00000000
Si      -1.35940702      -1.36252818       1.37749961       0.00000000
Si       1.46800593      -1.25915184      -1.45723496       0.00000000
Si      -1.42551021       1.41266880      -1.36971862       0.00000000
Si      -0.00324171      -2.27651121      -2.97849343       0.00000000
Si      -2.70281132      -2.71459818      -0.00973741       0.00000000
Si       2.71003698      -2.71963179       0.00322861       0.00000000
Si       2.72251512       2.71951776      -0.01090645       0.00000000
Si      -2.72327821       2.71852407       0.04298970       0.00000000
Si       2.71249677      -0.00355122       2.73478859       0.00000000
