10
Lattice="16.28999089631971 0.0 0.0 0.0 16.28999089631971 0.0 0.0 0.0 34.383488856416385" Properties=species:S:1:pos:R:3:initial_magmoms:R:1 pbc="T T T"
Si      -1.06578954      -0.46169118       2.04158956       0.00000000
Si       1.65188745      -1.60625916      -0.66759019       0.00000000
Si       0.65722005       2.27641347       0.47208557       0.00000000
Si      -0.96604587      -0.45613629      -2.19222371       0.00000000
Si       2.88616446       1.68133977      -0.05442909       0.00000000
Si       2.93547429       0.10161702      -1.84842301       0.00000000
Si      -2.14912341      -2.44007910       1.34728338       0.00000000
Si      -1.95525612       2.07420570      -2.11816163       0.00000000
Si       1.19808063       0.35992755      -3.38811650       0.00000000
Si       1.80646326      -2.93511591       1.28549622       0.00000000
