10
Lattice="16.28999089631971 0.0 0.0 0.0 16.28999089631971 0.0 0.0 0.0 34.383488856416385" Properties=species:S:1:pos:R:3:initial_magmoms:R:1 pbc="T T T"
Si      -0.73531431      -2.13433209       0.61071987       0.00000000
Si       2.04507918      -0.61010937      -1.01032500       0.00000000
Si      -0.40752693       1.59627339       1.76002301       0.00000000
Si      -1.59308055       0.26730261      -1.80331185       0.00000000
Si      -0.81195876      -2.85694020      -1.64029964       0.00000000
Si       1.27917225      -2.20612212      -2.55940519       0.00000000
Si      -2.55796983       2.28286431      -1.15226012       0.00000000
Si      -2.72139111       2.08575531       1.17973255       0.00000000
Si       0.65449962       3.51117918       0.82565118       0.00000000
Si      -2.75809248      -1.82078217       1.83092180       0.00000000
