10
Lattice="16.28999089631971 0.0 0.0 0.0 16.28999089631971 0.0 0.0 0.0 34.383488856416385" Properties=species:S:1:pos:R:3:initial_magmoms:R:1 pbc="T T T"
Si       1.22277627      -2.01505671       0.30233419       0.00000000
Si       1.54311912       1.79139501       0.49278444       0.00000000
Si      -1.99480824      -0.15951168       1.44613597       0.00000000
Si      -0.75812031       0.55788363      -2.29836560       0.00000000
Si      -1.68578694       2.88205938       1.42093285       0.00000000
Si       1.82594610      -1.56794508       2.77935649       0.00000000
Si       0.27912915       3.77315496       0.37006970       0.00000000
Si       3.17233089      -1.98451296      -1.01235363       0.00000000
Si      -1.63243719       1.34257293       3.26395765       0.00000000
Si      -0.20976633      -3.93776541       0.14568292       0.00000000
