10
Lattice="16.28999089631971 0.0 0.0 0.0 16.28999089631971 0.0 0.0 0.0 34.383488856416385" Properties=species:S:1:pos:R:3:initial_magmoms:R:1 pbc="T T T"
Si      -1.35547135      -1.35627412       1.35715145       0.00000000
Si       1.35700587      -1.35730039      -1.35694515       0.00000000
Si      -1.35804680       1.35728380      -1.35763282       0.00000000
Si       1.35847197       1.36145892       1.35807980       0.00000000
Si       0.00156384       2.71256781       2.71334016       0.00000000
Si      -0.00255753       2.71426197      -2.71474988       0.00000000
Si       2.71453302       2.71489728       0.00010315       0.00000000
Si       2.71425609      -2.71518592       0.00027507       0.00000000
Si       2.71642266      -0.00077711      -2.71399344       0.00000000
Si      -2.71552593      -2.71508818       0.00041260       0.00000000
