10
Lattice="16.28999089631971 0.0 0.0 0.0 16.28999089631971 0.0 0.0 0.0 34.383488856416385" Properties=species:S:1:pos:R:3:initial_magmoms:R:1 pbc="T T T"
Si       2.01266208      -0.84424554       0.93987319       0.00000000
Si       1.29210651       1.34926812      -1.63455759       0.00000000
Si      -1.30145697      -1.43236341      -1.57644946       0.00000000
Si      -1.63559745       0.80355312       1.80375883       0.00000000
Si       2.83986828      -2.66462046      -0.33496414       0.00000000
Si      -3.85429545       0.57068757       0.78989233       0.00000000
Si      -2.75385708      -2.87551080      -0.33747413       0.00000000
Si       1.84733487      -1.74610881       3.09571915       0.00000000
Si      -0.07038909       2.63854017      -3.10352421       0.00000000
Si       2.65090428      -0.06538806      -3.09664750       0.00000000
