10
Lattice="16.28999089631971 0.0 0.0 0.0 16.28999089631971 0.0 0.0 0.0 34.383488856416385" Properties=species:S:1:pos:R:3:initial_magmoms:R:1 pbc="T T T"
Si      -1.53218853      -0.37232424      -1.71463678       0.00000000
Si       1.32447474       1.65575862      -1.04677152       0.00000000
Si      -0.94933233       1.34413255       1.70201803       0.00000000
Si       0.85572999      -2.25688176       0.21049584       0.00000000
Si       0.07654671      -1.59886350      -3.16685863       0.00000000
Si       0.90632673       2.73008087       2.24926595       0.00000000
Si      -0.84737322       0.05813901       3.66060580       0.00000000
Si      -1.94391828       1.73924487      -2.71083016       0.00000000
Si      -1.08923085      -3.73402638       0.27816258       0.00000000
Si       1.46453616       3.61656638       0.21850719       0.00000000
