10
Lattice="16.28999089631971 0.0 0.0 0.0 16.28999089631971 0.0 0.0 0.0 34.383488856416385" Properties=species:S:1:pos:R:3:initial_magmoms:R:1 pbc="T T T"
Si      -1.35531171      -1.35669656       1.35704830       0.00000000
Si       1.35796698      -1.35718526      -1.35722021       0.00000000
Si      -1.35793440       1.35724255      -1.35790788       0.00000000
Si       1.35783666       1.35842846       1.35711706       0.00000000
Si      -0.00190593       2.71353003       2.71364961       0.00000000
Si      -0.00219915      -2.71508708       2.71385591       0.00000000
Si       2.71360449      -0.00252515      -2.71547193       0.00000000
Si      -2.71433754      -2.71505450      -0.00003438       0.00000000
Si      -2.71454931       2.71509387      -0.00003438       0.00000000
Si      -2.71529865      -0.00242741      -2.71437166       0.00000000
