10
Lattice="16.28999089631971 0.0 0.0 0.0 16.28999089631971 0.0 0.0 0.0 34.383488856416385" Properties=species:S:1:pos:R:3:initial_magmoms:R:1 pbc="T T T"
Si      -1.35974259       1.35510157       1.35653254       0.00000000
Si       1.35767876       1.35671428      -1.35725460       0.00000000
Si      -1.35783666      -1.35842846      -1.35711706       0.00000000
Si       1.35738054      -1.35913916       1.36117432       0.00000000
Si      -2.71292031       2.71404595      -0.00027507       0.00000000
Si      -2.71314837      -2.71512502      -0.00006877       0.00000000
Si       0.00105885       2.71450207      -2.71433728       0.00000000
Si       0.00013032      -2.71561372      -2.71433728       0.00000000
Si       2.71617246       2.71402966       0.00030945       0.00000000
Si       2.71511199      -0.00124130      -2.71509371       0.00000000
