10
Lattice="16.28999089631971 0.0 0.0 0.0 16.28999089631971 0.0 0.0 0.0 34.383488856416385" Properties=species:S:1:pos:R:3:initial_magmoms:R:1 pbc="T T T"
Si      -1.52252856       1.21730120      -1.24059135       0.00000000
Si       1.20433599      -1.55213956      -1.23416164       0.00000000
Si       1.74848715       0.95257078       1.20190991       0.00000000
Si      -1.85166801      -0.78918112       1.23086082       0.00000000
Si      -0.33321195      -0.91234981       3.03087185       0.00000000
Si      -0.16320951       2.54465601      -2.59578294       0.00000000
Si       2.55391362      -0.16958472      -2.59114117       0.00000000
Si       3.23576971      -0.94405015       1.38156374       0.00000000
Si       1.05262722       1.08325405       3.45365147       0.00000000
Si      -2.83201650       2.63022738       0.18835286       0.00000000
