10
Lattice="16.28999089631971 0.0 0.0 0.0 16.28999089631971 0.0 0.0 0.0 34.383488856416385" Properties=species:S:1:pos:R:3:initial_magmoms:R:1 pbc="T T T"
Si      -1.21021668       1.92181275       0.26482178       0.00000000
Si       1.99633950       0.54926622      -1.02933908       0.00000000
Si       0.05413167      -1.41605060       1.86190135       0.00000000
Si      -1.03676076      -1.43357050      -1.55042115       0.00000000
Si      -3.18533031       0.75899997      -0.12309296       0.00000000
Si       2.18672073      -1.55307394      -2.03340628       0.00000000
Si       0.54648063      -3.10779710      -1.17650050       0.00000000
Si       2.14281918       2.86607889       0.71706806       0.00000000
Si      -0.60481512       3.27780864      -1.59542916       0.00000000
Si      -0.94535757       2.60548776       2.50112514       0.00000000
