10
Lattice="16.28999089631971 0.0 0.0 0.0 16.28999089631971 0.0 0.0 0.0 34.383488856416385" Properties=species:S:1:pos:R:3:initial_magmoms:R:1 pbc="T T T"
Si      -1.66288320      -1.46994444       0.77637961       0.00000000
Si       1.42772076      -1.74956718      -0.65755021       0.00000000
Si      -0.89459793       1.40058162      -1.68754258       0.00000000
Si       0.95985567       1.46184831       1.61059229       0.00000000
Si       1.02086172       2.69193879      -1.76741547       0.00000000
Si       0.10489131      -2.62095674      -2.32676637       0.00000000
Si       0.98450244      -3.17491220       1.20294141       0.00000000
Si      -2.02628052      -2.61151180      -1.27291185       0.00000000
Si       2.98204318       0.35942256       2.14587474       0.00000000
Si       1.80701712       3.38061483       0.38698638       0.00000000
