10
Lattice="16.28999089631971 0.0 0.0 0.0 16.28999089631971 0.0 0.0 0.0 34.383488856416385" Properties=species:S:1:pos:R:3:initial_magmoms:R:1 pbc="T T T"
Si      -1.32282945      -0.87138957      -1.66921617       0.00000000
Si      -1.42772076       1.74956718       0.65755021       0.00000000
Si       2.36396963       0.13358289      -0.15520716       0.00000000
Si      -0.44321832      -1.42534503       1.86049162       0.00000000
Si      -3.09060396       0.27962274       1.43392982       0.00000000
Si      -3.45400128      -0.86194462      -0.61536164       0.00000000
Si       1.06517934      -0.18118553       3.47280308       0.00000000
Si       3.18113468      -1.72667714       1.02631333       0.00000000
Si      -1.37696112       0.54466104      -3.53111751       0.00000000
Si       1.55432242       2.10898974       2.80342495       0.00000000
