10
Lattice="16.28999089631971 0.0 0.0 0.0 16.28999089631971 0.0 0.0 0.0 34.383488856416385" Properties=species:S:1:pos:R:3:initial_magmoms:R:1 pbc="T T T"
Si       1.13239935       1.41242445       1.55899781       0.00000000
Si       1.91203875      -1.48050850      -0.28424846       0.00000000
Si      -1.54759887      -1.21307557       1.53956081       0.00000000
Si      -0.49616082       2.09261340      -1.68898668       0.00000000
Si       2.24358912       3.02313078       0.14750525       0.00000000
Si       2.52492624      -1.38990841      -2.51116513       0.00000000
Si       2.46265712       0.00912240       2.97552957       0.00000000
Si      -0.27104931      -2.70877355       2.98088996       0.00000000
Si      -0.25327692       2.72326446       2.99229497       0.00000000
Si      -3.49143570      -2.07519124       0.45867741       0.00000000
