10
Lattice="16.28999089631971 0.0 0.0 0.0 16.28999089631971 0.0 0.0 0.0 34.383488856416385" Properties=species:S:1:pos:R:3:initial_magmoms:R:1 pbc="T T T"
Si       1.50581013       1.80243963      -0.51313947       0.00000000
Si       0.74881057      -1.97444574      -1.30193153       0.00000000
Si      -1.98444358       0.85162491      -1.25420722       0.00000000
Si       0.12767287       0.29971971       2.54190398       0.00000000
Si       2.03549577      -2.70863604       0.51922536       0.00000000
Si      -0.68822057       2.01266208      -2.81253658       0.00000000
Si       2.01964560      -0.77763573      -2.84757337       0.00000000
Si      -0.56444687      -1.86893541       3.10926625       0.00000000
Si       3.33499794       0.82028295      -1.64841414       0.00000000
Si      -3.26526112       2.25388440       0.17477137       0.00000000
