10
Lattice="16.28999089631971 0.0 0.0 0.0 16.28999089631971 0.0 0.0 0.0 34.383488856416385" Properties=species:S:1:pos:R:3:initial_magmoms:R:1 pbc="T T T"
Si       1.29622301       1.16103717      -1.55832935       0.00000000
Si      -1.28081754       1.40225949       1.42897860       0.00000000
Si       1.98444358      -0.85162491       1.25420722       0.00000000
Si      -1.47359340      -1.53106452      -1.44321337       0.00000000
Si       3.49025372       0.95081472       0.74106775       0.00000000
Si      -2.69887833       2.51638146      -0.24463866       0.00000000
Si       2.29853433       2.93710329      -0.19227258       0.00000000
Si      -0.15866460       2.37602682      -3.02705528       0.00000000
Si      -1.36539522      -0.41549274       3.58564976       0.00000000
Si       2.73325416      -2.82607065      -0.04772431       0.00000000
