10
Lattice="16.28999089631971 0.0 0.0 0.0 16.28999089631971 0.0 0.0 0.0 34.383488856416385" Properties=species:S:1:pos:R:3:initial_magmoms:R:1 pbc="T T T"
Si      -1.58109111       0.43292304      -1.64780525       0.00000000
Si      -1.52961471      -1.10897433       1.43436133       0.00000000
Si       1.29290865       1.68884946       1.24635231       0.00000000
Si       0.30099638       0.09697437      -2.96906032       0.00000000
Si       2.20852394      -0.88896159      -2.12071602       0.00000000
Si       0.17734267      -2.08889928       2.66869833       0.00000000
Si       1.96585181       1.90832463      -2.25694348       0.00000000
Si       2.86654220      -2.14571880      -0.21652296       0.00000000
Si      -2.52452646       0.61665795       2.65337360       0.00000000
Si       1.47511067      -3.39475455       1.25599001       0.00000000
