10
Lattice="16.28999089631971 0.0 0.0 0.0 16.28999089631971 0.0 0.0 0.0 34.383488856416385" Properties=species:S:1:pos:R:3:initial_magmoms:R:1 pbc="T T T"
Si       0.90261361       1.73105685      -1.29735853       0.00000000
Si      -1.80833661      -0.92027097      -1.34195394       0.00000000
Si      -0.11780928       2.21837220       1.29340442       0.00000000
Si       1.89942933      -1.79765037       0.15087483       0.00000000
Si       2.18125773       0.36336474      -2.67792514       0.00000000
Si      -0.55776960      -2.35872684      -2.68390787       0.00000000
Si       2.81674367      -0.17695827       2.34822168       0.00000000
Si      -3.09798333      -2.21837220       0.09850875       0.00000000
Si       0.89711801      -3.57371649      -1.21518194       0.00000000
Si       1.46766940       3.66516855      -0.06862948       0.00000000
