10
Lattice="16.28999089631971 0.0 0.0 0.0 16.28999089631971 0.0 0.0 0.0 34.383488856416385" Properties=species:S:1:pos:R:3:initial_magmoms:R:1 pbc="T T T"
Si       0.48355236      -1.89289800       1.32094561       0.00000000
Si       1.65141571       1.65221325       0.44715752       0.00000000
Si      -1.86167007       0.35570844       1.49344767       0.00000000
Si      -1.18846953      -1.41861465      -1.80331185       0.00000000
Si      -1.27304721      -3.23636688       0.35335931       0.00000000
Si       0.77071248      -0.64949859       3.41514194       0.00000000
Si       2.22250564       1.09149516       2.67902541       0.00000000
Si      -3.59906373       0.61401897      -0.04624582       0.00000000
Si       0.90047862       3.80558835      -0.02410284       0.00000000
Si       3.30819668       1.73692125      -1.22721617       0.00000000
