10
Lattice="16.28999089631971 0.0 0.0 0.0 16.28999089631971 0.0 0.0 0.0 34.383488856416385" Properties=species:S:1:pos:R:3:initial_magmoms:R:1 pbc="T T T"
Si      -1.35511623      -1.35742941      -1.35570734       0.00000000
Si      -1.35627282       1.35765747       1.35704830       0.00000000
Si       1.35736425       1.35713619      -1.35856117       0.00000000
Si       1.35876519      -1.35767376       1.35701391       0.00000000
Si      -0.00969255      -2.70774009      -2.71289317       0.00000000
Si      -2.71252935       0.00265527       2.71505933       0.00000000
Si      -2.71340901      -2.71432125      -0.00024068       0.00000000
Si       0.00203625      -2.71464705       2.71402783       0.00000000
Si       0.00275301       2.71601541       2.71413098       0.00000000
Si       2.71608057       0.00130320       2.71409659       0.00000000
