10
Lattice="16.28999089631971 0.0 0.0 0.0 16.28999089631971 0.0 0.0 0.0 34.383488856416385" Properties=species:S:1:pos:R:3:initial_magmoms:R:1 pbc="T T T"
Si      -1.20433599       1.55213956       1.23416164       0.00000000
Si      -1.36783872      -1.33182153      -1.36141500       0.00000000
Si       1.34957763       1.38255485      -1.35697953       0.00000000
Si       1.46637793      -1.32602229       1.38699633       0.00000000
Si       2.03143372       0.60808941       2.61572538       0.00000000
Si       0.54415116       2.50471035       2.43607155       0.00000000
Si      -2.72318301      -2.67621894       0.02118024       0.00000000
Si      -0.00762372      -2.68814322      -2.71825700       0.00000000
Si       2.70988452       0.02689479      -2.71846330       0.00000000
Si       2.74502205      -2.69371440       0.00642972       0.00000000
