10
Lattice="16.28999089631971 0.0 0.0 0.0 16.28999089631971 0.0 0.0 0.0 34.383488856416385" Properties=species:S:1:pos:R:3:initial_magmoms:R:1 pbc="T T T"
Si      -0.69211975      -2.16865512       0.56736227       0.00000000
Si       2.24862599       0.04448799       0.80378327       0.00000000
Si      -1.72091211       1.47988134       0.75712485       0.00000000
Si      -0.12767287      -0.29971971      -2.54190398       0.00000000
Si      -3.47751168       0.13641246      -0.21046145       0.00000000
Si       1.37813726       1.50271992      -3.05504346       0.00000000
Si      -3.01943688      -2.17701189       0.08547740       0.00000000
Si       2.86520249       2.32394769       0.58802676       0.00000000
Si      -0.76725867      -2.31643800       2.89350974       0.00000000
Si       0.90023753      -3.80167875      -0.12622186       0.00000000
