10
Lattice="16.28999089631971 0.0 0.0 0.0 16.28999089631971 0.0 0.0 0.0 34.383488856416385" Properties=species:S:1:pos:R:3:initial_magmoms:R:1 pbc="T T T"
Si      -2.18744468      -0.66911175      -0.24460428       0.00000000
Si       0.57231657      -0.05367555       2.25380457       0.00000000
Si       0.70965756       1.58368122      -1.64360045       0.00000000
Si      -0.33176214      -2.27439351      -0.73611652       0.00000000
Si       0.37515870      -1.71730809      -2.90973875       0.00000000
Si      -1.49310393       2.45446317      -1.90907552       0.00000000
Si       2.81538441      -0.59072427       1.91808400       0.00000000
Si      -2.66327558       0.38063214      -2.26233168       0.00000000
Si      -3.36016178       0.36165429       1.45957992       0.00000000
Si       1.55445696       0.21378996      -3.42418480       0.00000000
