10
Lattice="16.28999089631971 0.0 0.0 0.0 16.28999089631971 0.0 0.0 0.0 34.383488856416385" Properties=species:S:1:pos:R:3:initial_magmoms:R:1 pbc="T T T"
Si      -0.65801826       1.25675721      -1.90419306       0.00000000
Si      -1.39143153      -1.24903575       1.47251297       0.00000000
Si       1.38204360       1.42845381       1.38584246       0.00000000
Si       0.82205856      -1.60568901      -1.65893550       0.00000000
Si      -2.86654220       2.14571880       0.21652296       0.00000000
Si       0.40417119       0.04987998      -3.59015400       0.00000000
Si      -2.88780065      -2.36229435       0.00446986       0.00000000
Si      -1.13584143      -3.25314558      -1.48041632       0.00000000
Si       2.79810072      -2.49523704      -0.15819852       0.00000000
Si       0.03407868      -2.66170455       2.84223159       0.00000000
