10
Lattice="16.28999089631971 0.0 0.0 0.0 16.28999089631971 0.0 0.0 0.0 34.383488856416385" Properties=species:S:1:pos:R:3:initial_magmoms:R:1 pbc="T T T"
Si       2.28687165       0.19440486       0.41916935       0.00000000
Si      -0.61657650      -2.27945970       0.21575651       0.00000000
Si      -0.55508175       1.68339231       1.59687327       0.00000000
Si      -0.46530756       0.81679689      -2.24314568       0.00000000
Si       2.58747102      -1.70044794      -1.28666526       0.00000000
Si       0.69626718       3.44745270       0.56794679       0.00000000
Si      -2.86520249      -2.32394769      -0.58802676       0.00000000
Si       2.70321147       2.39550966       1.19479252       0.00000000
Si      -2.84716131       2.14032681       1.52717789       0.00000000
Si      -0.27367200      -3.09262392       2.48358956       0.00000000
