10
Lattice="16.28999089631971 0.0 0.0 0.0 16.28999089631971 0.0 0.0 0.0 34.383488856416385" Properties=species:S:1:pos:R:3:initial_magmoms:R:1 pbc="T T T"
Si      -2.19705673       0.74826486      -0.46510571       0.00000000
Si       1.19738016      -1.40045130      -1.49403219       0.00000000
Si       0.00967626      -1.19112480       2.08855743       0.00000000
Si       1.17027360       2.16437085       0.22514321       0.00000000
Si       0.13805775       0.69633234       3.44020752       0.00000000
Si      -2.27991093       2.62936890       0.93536895       0.00000000
Si       3.18076911      -0.11153763      -1.80389637       0.00000000
Si       1.40491476      -3.43976382      -0.24869591       0.00000000
Si       1.85147253       2.05710120       2.53427085       0.00000000
Si       2.58488091       2.16212283      -1.75465918       0.00000000
