10
Lattice="16.28999089631971 0.0 0.0 0.0 16.28999089631971 0.0 0.0 0.0 34.383488856416385" Properties=species:S:1:pos:R:3:initial_magmoms:R:1 pbc="T T T"
Si      -1.90752756       0.98593596      -0.84834429       0.00000000
Si       1.06218945      -1.20687723      -1.68596093       0.00000000
Si       0.65801826      -1.25675721       1.90419306       0.00000000
Si      -0.24267213       2.79728622      -0.13622746       0.00000000
Si       2.55174705       0.64663155      -1.56118318       0.00000000
Si      -2.20852394       0.88896159       2.12071602       0.00000000
Si       1.48007682      -2.86244622       0.24525756       0.00000000
Si       1.57341852       2.76273513      -1.70198365       0.00000000
Si       2.04006186       0.17169660       3.29003552       0.00000000
Si      -0.35500797      -1.85155398      -3.53008601       0.00000000
