10
Lattice="16.28999089631971 0.0 0.0 0.0 16.28999089631971 0.0 0.0 0.0 34.383488856416385" Properties=species:S:1:pos:R:3:initial_magmoms:R:1 pbc="T T T"
Si       0.30869876      -2.07018207      -0.99203297       0.00000000
Si       0.23220418      -0.41391261       2.30500161       0.00000000
Si      -2.28205863       0.50487597      -0.39283158       0.00000000
Si       1.44352043       1.58298075      -1.03336195       0.00000000
Si      -2.45605212       2.13008040       1.25039065       0.00000000
Si      -0.26239118      -1.50946398      -3.22390087       0.00000000
Si       1.47965165       3.29314667       0.52548315       0.00000000
Si       2.60077832      -2.52711657      -0.92233760       0.00000000
Si      -1.64744910      -1.75624119       2.87081662       0.00000000
Si      -0.81581202       3.68480356       0.39348487       0.00000000
