10
Lattice="10.86 0.0 0.0 0.0 10.86 0.0 0.0 0.0 10.86" Properties=species:S:1:pos:R:3:initial_magmoms:R:1 pbc="T T T"
Si       1.35750000      -1.35750000      -1.35750000       0.00000000
Si      -1.35750000      -1.35750000       1.35750000       0.00000000
Si       1.35750000       1.35750000       1.35750000       0.00000000
Si      -1.35750000       1.35750000      -1.35750000       0.00000000
Si       0.03084240      -2.63224680      -2.61249246       0.00000000
Si       2.69980686      -0.16253076       2.67416640       0.00000000
Si       2.72158116       0.01137042      -2.68948986       0.00000000
Si      -2.71500000      -2.71500000       0.00000000       0.00000000
Si       2.71500000      -2.71500000       0.00000000       0.00000000
Si       0.00000000       2.71500000      -2.71500000       0.00000000
