10
Lattice="10.86 0.0 0.0 0.0 10.86 0.0 0.0 0.0 10.86" Properties=species:S:1:pos:R:3:initial_magmoms:R:1 pbc="T T T"
Si      -1.40925876       1.30328688       0.91892976       0.00000000
Si       0.91382556      -1.51781532       1.39557516       0.00000000
Si      -1.75762584      -1.19173296      -1.41920652       0.00000000
Si       2.23227300      -0.07359822       2.56124412       0.00000000
Si       2.23227300      -2.78859822      -0.15375588       0.00000000
Si      -0.48272700       2.64140178       2.56124412       0.00000000
Si      -0.48272700      -2.78859822       2.56124412       0.00000000
Si      -0.04540566       2.66661870      -2.74701528       0.00000000
Si      -0.48272700      -2.78859822      -2.86875588       0.00000000
Si       3.41098482      -1.48669056      -1.62657822       0.00000000
