10
Lattice="10.86 0.0 0.0 0.0 10.86 0.0 0.0 0.0 10.86" Properties=species:S:1:pos:R:3:initial_magmoms:R:1 pbc="T T T"
Si      -1.22214096       1.37933946      -1.17038220       0.00000000
Si      -0.78481962      -1.31044362       1.66635840       0.00000000
Si       1.49285904      -1.33566054      -1.17038220       0.00000000
Si       1.49285904       1.37933946       1.54461780       0.00000000
Si      -2.57964096       0.02183946      -2.52788220       0.00000000
Si      -2.43869988      -2.71077546       0.18609696       0.00000000
Si       0.13535904      -2.69316054      -2.52788220       0.00000000
Si       0.13535904       2.73683946      -2.52788220       0.00000000
Si      -2.57964096       2.73683946       0.18711780       0.00000000
Si       2.85035904       0.02183946      -2.52788220       0.00000000
