10
Lattice="10.86 0.0 0.0 0.0 10.86 0.0 0.0 0.0 10.86" Properties=species:S:1:pos:R:3:initial_magmoms:R:1 pbc="T T T"
Si      -1.27084806      -1.38399840      -1.39158954       0.00000000
Si       1.44415194      -1.38399840       1.32341046       0.00000000
Si       1.44415194       1.33100160      -1.39158954       0.00000000
Si      -2.48391006       2.72601204      -0.00188964       0.00000000
Si       0.00841650       2.73236514       2.58819864       0.00000000
Si      -2.63307216      -0.14690322       2.72892252       0.00000000
Si      -2.62834806      -2.74149840      -0.03408954       0.00000000
Si      -2.62834806      -0.02649840      -2.74908954       0.00000000
Si       0.08665194      -2.74149840       2.68091046       0.00000000
Si       0.08665194       2.68850160      -2.74908954       0.00000000
