10
Lattice="10.86 0.0 0.0 0.0 10.86 0.0 0.0 0.0 10.86" Properties=species:S:1:pos:R:3:initial_magmoms:R:1 pbc="T T T"
Si       1.10063928       1.41189774       1.28882136       0.00000000
Si       1.10063928      -1.30310226      -1.42617864       0.00000000
Si      -1.61436072       1.41189774      -1.42617864       0.00000000
Si       2.45813928       0.05439774       2.64632136       0.00000000
Si       2.45813928      -2.66060226      -0.06867864       0.00000000
Si       2.45813928       2.76939774      -0.06867864       0.00000000
Si       2.45813928       0.05439774      -2.78367864       0.00000000
Si      -0.25686072       2.76939774       2.64632136       0.00000000
Si      -0.37335594      -2.72138568      -2.71573848       0.00000000
Si      -0.28174098      -2.75612682       2.74161786       0.00000000
