10
Lattice="10.86 0.0 0.0 0.0 10.86 0.0 0.0 0.0 10.86" Properties=species:S:1:pos:R:3:initial_magmoms:R:1 pbc="T T T"
Si      -1.41690420      -1.25330916       1.20463464       0.00000000
Si       1.29809580       1.46169084       1.20463464       0.00000000
Si       1.29809580      -1.25330916      -1.51036536       0.00000000
Si      -0.25402626      -2.31297366      -2.60990778       0.00000000
Si      -0.05940420      -2.61080916       2.56213464       0.00000000
Si       2.65559580       0.10419084       2.56213464       0.00000000
Si       2.65559580      -2.61080916      -0.15286536       0.00000000
Si      -2.68630788      -2.62279860      -0.12182748       0.00000000
Si      -2.77440420       0.10419084       2.56213464       0.00000000
Si       0.12491172       2.65562838      -2.70940710       0.00000000
