10
Lattice="10.86 0.0 0.0 0.0 10.86 0.0 0.0 0.0 10.86" Properties=species:S:1:pos:R:3:initial_magmoms:R:1 pbc="T T T"
Si       1.44280530      -1.26737286      -1.40779266       0.00000000
Si      -1.27219470       1.44762714      -1.40779266       0.00000000
Si       1.44280530       1.44762714       1.30720734       0.00000000
Si       0.08530530      -2.62487286      -2.76529266       0.00000000
Si      -2.75159820      -2.64313938       0.04152864       0.00000000
Si      -2.62969470       0.09012714      -2.76529266       0.00000000
Si       2.80030530      -2.62487286      -0.05029266       0.00000000
Si      -2.76578136       2.67763074      -0.18949614       0.00000000
Si       2.80030530       0.09012714       2.66470734       0.00000000
Si       2.80030530       0.09012714      -2.76529266       0.00000000
