10
Lattice="10.86 0.0 0.0 0.0 10.86 0.0 0.0 0.0 10.86" Properties=species:S:1:pos:R:3:initial_magmoms:R:1 pbc="T T T"
Si       1.42222560       1.20357036       1.28071980       0.00000000
Si      -1.29277440       1.20357036      -1.43428020       0.00000000
Si       1.42222560      -1.51142964      -1.43428020       0.00000000
Si       0.06472560       2.56107036       2.63821980       0.00000000
Si      -2.65027440       2.56107036      -0.07678020       0.00000000
Si      -2.73145290      -0.10992492       2.58797058       0.00000000
Si       2.77972560       2.56107036      -0.07678020       0.00000000
Si       0.06472560       2.56107036      -2.79178020       0.00000000
Si       2.77972560      -0.15392964       2.63821980       0.00000000
Si       2.77972560      -0.15392964      -2.79178020       0.00000000
