10
Lattice="16.28999089631971 0.0 0.0 0.0 16.28999089631971 0.0 0.0 0.0 34.71893929493243" Properties=species:S:1:pos:R:3:initial_magmoms:R:1 pbc="T T T"
Si       1.50581502      -1.19517873       1.30149572       0.00000000
Si      -1.19581632       1.54473835       1.28514656       0.00000000
Si      -1.67347170      -0.97758408      -1.33170954       0.00000000
Si       1.84477734       0.83970715      -1.28282178       0.00000000
Si       0.35435637       0.61650157      -3.07214321       0.00000000
Si      -0.11047878      -1.67681182      -2.94104442       0.00000000
Si       0.15864831      -2.52475519       2.65552816       0.00000000
Si      -2.63251287      -2.55502201       0.06494528       0.00000000
Si      -2.56214007       0.18936473       2.65323671       0.00000000
Si       2.66825313      -2.64163594      -0.16416512       0.00000000
