10
Lattice="16.28999089631971 0.0 0.0 0.0 16.28999089631971 0.0 0.0 0.0 34.71893929493243" Properties=species:S:1:pos:R:3:initial_magmoms:R:1 pbc="T T T"
Si       0.70266915       1.80139381      -1.41257555       0.00000000
Si      -1.82816154      -0.75637451      -1.47902764       0.00000000
Si       1.82200392      -1.95611364      -0.13811202       0.00000000
Si      -0.16485480      -1.13902353       3.25990191       0.00000000
Si       2.07663291       0.50196332      -2.95548608       0.00000000
Si      -0.58782465       2.82517144       2.25381592       0.00000000
Si      -2.77571826      -2.49057225      -0.06884770       0.00000000
Si      -0.64350387      -2.21128020      -2.97229005       0.00000000
Si       1.84318092       3.34866688      -0.06551468       0.00000000
Si       3.40812864      -0.92598291      -1.57394927       0.00000000
