10
Lattice="16.28999089631971 0.0 0.0 0.0 16.28999089631971 0.0 0.0 0.0 34.71893929493243" Properties=species:S:1:pos:R:3:initial_magmoms:R:1 pbc="T T T"
Si      -1.21599053       2.03950148       0.29080600       0.00000000
Si       2.37374622       0.01880518       0.54043531       0.00000000
Si      -1.41860555      -0.66891790       1.87659444       0.00000000
Si      -0.11692962      -1.59190508      -1.95235120       0.00000000
Si      -3.06334169       0.79953926       1.02712567       0.00000000
Si       2.06405703      -0.44417128       2.79352214       0.00000000
Si       0.34179352      -3.51441830      -0.70028140       0.00000000
Si      -2.46613400      -1.75607570      -2.03789872       0.00000000
Si      -0.13367900       2.97045869       2.13132744       0.00000000
Si      -1.02057569       3.06243203      -1.83486225       0.00000000
