10
Lattice="16.28999089631971 0.0 0.0 0.0 16.28999089631971 0.0 0.0 0.0 34.71893929493243" Properties=species:S:1:pos:R:3:initial_magmoms:R:1 pbc="T T T"
Si       1.41434667      -1.25980344      -1.41177702       0.00000000
Si      -1.30295565       1.47927861      -1.38285612       0.00000000
Si      -1.52928891      -1.10737791       1.49788004       0.00000000
Si       1.77073929       1.20371697       1.20183147       0.00000000
Si      -2.66980068      -2.65465098       0.15081916       0.00000000
Si       2.84926761      -2.49046407       0.01805386       0.00000000
Si       0.06094089      -2.60752401      -2.77737782       0.00000000
Si      -2.65575870       0.11241729      -2.76779539       0.00000000
Si       3.59547993      -0.47576574       1.27415107       0.00000000
Si      -2.59954191       2.90067885       0.19119731       0.00000000
