10
Lattice="16.28999089631971 0.0 0.0 0.0 16.28999089631971 0.0 0.0 0.0 34.71893929493243" Properties=species:S:1:pos:R:3:initial_magmoms:R:1 pbc="T T T"
Si       1.71818775       0.21452301      -1.57731701       0.00000000
Si       1.10597697       0.71443053       1.99123644       0.00000000
Si      -0.26290431      -2.30329197       0.60969963       0.00000000
Si      -1.82627190       1.43594721      -0.60515145       0.00000000
Si      -3.40299892       0.72176103       0.99851725       0.00000000
Si      -0.38263581      -0.02927313       3.61625730       0.00000000
Si       3.51401364       0.94754043      -0.30830435       0.00000000
Si       3.29274657      -0.24140151       1.67376628       0.00000000
Si      -2.08419147      -3.03743340      -0.71243303       0.00000000
Si      -0.82953567      -2.21925186       2.91857983       0.00000000
