10
Lattice="16.28999089631971 0.0 0.0 0.0 16.28999089631971 0.0 0.0 0.0 34.71893929493243" Properties=species:S:1:pos:R:3:initial_magmoms:R:1 pbc="T T T"
Si       2.18110068      -0.78203403       0.31424130       0.00000000
Si      -0.44768178      -1.33972218      -1.96016297       0.00000000
Si      -1.84881726      -0.17317899       1.54617411       0.00000000
Si       1.06249896       2.22830910       0.15564509       0.00000000
Si       3.10614462       0.56055519      -1.35622668       0.00000000
Si      -3.04189686       1.79238870       0.47967713       0.00000000
Si       0.74875356      -3.25220076      -1.32223682       0.00000000
Si      -2.50380558      -2.54751165       0.53619960       0.00000000
Si       0.28074186       2.84024295       2.25629872       0.00000000
Si      -0.86900634       1.04943438       3.43656381       0.00000000
