10
Lattice="16.28999089631971 0.0 0.0 0.0 16.28999089631971 0.0 0.0 0.0 34.71893929493243" Properties=species:S:1:pos:R:3:initial_magmoms:R:1 pbc="T T T"
Si       1.39160583      -1.27386171      -1.40805167       0.00000000
Si       1.36653552       1.33271748       1.37816559       0.00000000
Si      -1.34403903      -1.38434049       1.37452010       0.00000000
Si      -1.46135961       1.37572308      -1.50859778       0.00000000
Si      -0.38836989      -2.37319236      -2.64544682       0.00000000
Si      -2.70034443       2.68534134       0.01825870       0.00000000
Si       2.72702745       2.68398927      -0.01794970       0.00000000
Si       0.00980658       2.69022834       2.73769058       0.00000000
Si      -2.70550836      -0.02554272       2.73692676       0.00000000
Si       2.71163340      -2.74714560       0.00375312       0.00000000
