10
Lattice="16.28999089631971 0.0 0.0 0.0 16.28999089631971 0.0 0.0 0.0 34.71893929493243" Properties=species:S:1:pos:R:3:initial_magmoms:R:1 pbc="T T T"
Si       1.58439798       0.99830007       1.57002603       0.00000000
Si      -1.41042078      -1.51746237       1.32963196       0.00000000
Si      -1.41024159       1.28858787      -1.56096438       0.00000000
Si       1.29658626      -1.42140024      -1.57405343       0.00000000
Si       2.59954191      -2.90067885      -0.19119731       0.00000000
Si       2.79650430       2.72515410       0.08162427       0.00000000
Si      -2.84890923       2.67934662      -0.09165805       0.00000000
Si       0.03417642      -2.60597646       2.97770621       0.00000000
Si      -0.05664033       2.63893113      -2.96062448       0.00000000
Si       2.65717593      -0.07677477      -2.96190909       0.00000000
