10
Lattice="16.28999089631971 0.0 0.0 0.0 16.28999089631971 0.0 0.0 0.0 34.71893929493243" Properties=species:S:1:pos:R:3:initial_magmoms:R:1 pbc="T T T"
Si       0.41172975      -1.59878205       1.69116048       0.00000000
Si      -2.03968719      -1.03399146      -0.66590963       0.00000000
Si       0.01826109       1.86399954       1.50385170       0.00000000
Si       1.24818867      -0.02823057      -2.14882579       0.00000000
Si       0.74626119      -3.46426398       0.36197986       0.00000000
Si      -2.25184815      -0.37743930      -2.88740220       0.00000000
Si      -1.31282739      -3.36730590      -0.77451053       0.00000000
Si      -2.16810126       1.82886201       2.51101397       0.00000000
Si       2.20755564      -0.86576463       2.96017314       0.00000000
Si       1.46388456       1.36888128       3.36822506       0.00000000
