10
Lattice="16.28999089631971 0.0 0.0 0.0 16.28999089631971 0.0 0.0 0.0 34.71893929493243" Properties=species:S:1:pos:R:3:initial_magmoms:R:1 pbc="T T T"
Si       1.37920914       1.88934678       0.07093083       0.00000000
Si       0.74367108      -2.23464591      -0.40805192       0.00000000
Si      -1.44562347       0.49511826      -1.86437336       0.00000000
Si      -1.41644808      -0.12181662       1.97071753       0.00000000
Si      -1.66436559      -2.46775581       1.89148887       0.00000000
Si      -1.05215481      -2.96766333      -1.67706458       0.00000000
Si      -0.00215028       3.37294224       1.37313482       0.00000000
Si      -3.63198582       0.45998073      -0.85721109       0.00000000
Si       0.52240401      -3.42358785       1.57401871       0.00000000
Si      -3.38680503       1.12384710       1.40552760       0.00000000
