10
Lattice="16.28999089631971 0.0 0.0 0.0 16.28999089631971 0.0 0.0 0.0 34.71893929493243" Properties=species:S:1:pos:R:3:initial_magmoms:R:1 pbc="T T T"
Si      -1.63400103      -1.12024701      -1.22714160       0.00000000
Si       1.60295229      -1.69924248      -0.20147412       0.00000000
Si      -1.11286764       0.26233416       2.06445872       0.00000000
Si       0.29514222       2.02362592      -1.22207263       0.00000000
Si      -1.10434797       2.63652251       2.01126928       0.00000000
Si       1.61738523      -1.82508273      -2.59749889       0.00000000
Si      -2.64450231      -2.38628952       0.49693246       0.00000000
Si      -1.81745901       2.22906400      -2.34092579       0.00000000
Si      -3.37855415      -0.50795478       1.73025403       0.00000000
Si      -0.68971860      -1.92168243      -3.24736836       0.00000000
