10
Lattice="16.28999089631971 0.0 0.0 0.0 16.28999089631971 0.0 0.0 0.0 34.71893929493243" Properties=species:S:1:pos:R:3:initial_magmoms:R:1 pbc="T T T"
Si       1.24371055      -1.74732730       1.10270885       0.00000000
Si      -1.30886633      -1.25732736      -1.59578750       0.00000000
Si       1.33091906       0.66652164      -1.94033844       0.00000000
Si      -1.18859726       1.98987237       1.02757702       0.00000000
Si      -0.43303448       0.02078604      -3.40624232       0.00000000
Si       1.02308368       2.99921706      -1.99818023       0.00000000
Si       3.11855108      -0.52400369       2.08067248       0.00000000
Si      -0.61712777       3.74427279      -0.46912257       0.00000000
Si       1.49927621      -3.47782445      -0.62577451       0.00000000
Si      -3.61538372      -1.01925064      -1.09552202       0.00000000
