10
Lattice="16.28999089631971 0.0 0.0 0.0 16.28999089631971 0.0 0.0 0.0 34.71893929493243" Properties=species:S:1:pos:R:3:initial_magmoms:R:1 pbc="T T T"
Si       1.35966114      -1.35175723      -1.35737241       0.00000000
Si      -1.35604476      -1.35632495       1.35792791       0.00000000
Si      -1.35324288       1.35931905      -1.35778904       0.00000000
Si       1.35913986       1.35845568       1.35796263       0.00000000
Si       2.70630657       0.00159642      -2.72069912       0.00000000
Si      -2.71337643      -2.71448156       0.00086797       0.00000000
Si       2.71458189      -2.71351394      -0.00003472       0.00000000
Si       0.00114030      -2.71369887       2.71471010       0.00000000
Si      -2.71383255       0.00120546       2.71530032       0.00000000
Si      -2.70824508       0.00087966      -2.72275448       0.00000000
