10
Lattice="16.28999089631971 0.0 0.0 0.0 16.28999089631971 0.0 0.0 0.0 34.71893929493243" Properties=species:S:1:pos:R:3:initial_magmoms:R:1 pbc="T T T"
Si      -1.35684297       1.35671265      -1.35709466       0.00000000
Si       1.35721764      -1.35716551      -1.35716410       0.00000000
Si       1.35839052       1.35630540       1.35726825       0.00000000
Si      -1.35868374      -1.35750923       1.35612253       0.00000000
Si      -2.71244790      -0.00298107       2.71203674       0.00000000
Si       2.71300176       0.00083079       2.71491841       0.00000000
Si      -0.00027693       2.71358820      -2.71536976       0.00000000
Si      -0.00408879      -2.71172697       2.71734874       0.00000000
Si      -2.71479366       2.71487511       0.00027775       0.00000000
Si       2.71518462      -2.71476286      -0.00010416       0.00000000
