10
Lattice="16.28999089631971 0.0 0.0 0.0 16.28999089631971 0.0 0.0 0.0 34.71893929493243" Properties=species:S:1:pos:R:3:initial_magmoms:R:1 pbc="T T T"
Si      -1.43492094       1.23066063      -1.42983088       0.00000000
Si      -1.00942614      -1.86825449       1.12725515       0.00000000
Si       1.28006820      -1.44250719      -1.43760792       0.00000000
Si       0.74621232       2.01469833       1.25609721       0.00000000
Si       2.56901445      -2.74489058      -0.02197710       0.00000000
Si      -2.84926761       2.49046407      -0.01805386       0.00000000
Si      -0.07480368       2.60262072      -2.78904339       0.00000000
Si       2.62733265       2.78026317       0.07047949       0.00000000
Si       2.63712294      -0.11324808      -2.79255000       0.00000000
Si       0.70514523      -3.60719963       1.14746158       0.00000000
