10
Lattice="16.28999089631971 0.0 0.0 0.0 16.28999089631971 0.0 0.0 0.0 34.71893929493243" Properties=species:S:1:pos:R:3:initial_magmoms:R:1 pbc="T T T"
Si      -1.64553435      -1.57998339      -0.63063517       0.00000000
Si       1.96478577      -0.92862774      -0.99872557       0.00000000
Si      -0.60582510       2.09460078      -1.02486894       0.00000000
Si       0.84986559       0.57480894       2.22833221       0.00000000
Si       2.75703363       1.11094542      -1.94280349       0.00000000
Si      -1.45267704      -3.10089761       1.28345575       0.00000000
Si      -0.18735129       2.63000421       2.56087039       0.00000000
Si       3.17404134       0.66595149       1.78951929       0.00000000
Si       0.78209919       2.19261771      -2.98985785       0.00000000
Si       3.48423552      -1.35378045       0.69913567       0.00000000
