10
Lattice="16.28999089631971 0.0 0.0 0.0 16.28999089631971 0.0 0.0 0.0 34.71893929493243" Properties=species:S:1:pos:R:3:initial_magmoms:R:1 pbc="T T T"
Si       0.02834460      -2.26632737      -0.50884106       0.00000000
Si       1.48631589      -0.25830076       1.84003537       0.00000000
Si       0.87807987       1.56108047      -1.59057965       0.00000000
Si      -2.28359736       0.18850788       0.79804998       0.00000000
Si       0.56788569       3.58081241      -0.50019604       0.00000000
Si      -0.01089801      -1.12436579       3.57830948       0.00000000
Si      -2.32039647      -1.28216702       2.70585677       0.00000000
Si       2.25261378      -2.98893548      -0.68139428       0.00000000
Si      -2.40894891       2.31244043       1.87152547       0.00000000
Si      -0.32549049      -3.58974326       1.39042486       0.00000000
