10
Lattice="16.28999089631971 0.0 0.0 0.0 16.28999089631971 0.0 0.0 0.0 34.71893929493243" Properties=species:S:1:pos:R:3:initial_magmoms:R:1 pbc="T T T"
Si      -0.78175710       0.61193385       2.10065362       0.00000000
Si       0.59717511       1.90475712      -1.39927819       0.00000000
Si      -1.06249896      -2.22830910      -0.15564509       0.00000000
Si       2.04364566      -1.66775391      -1.51187178       0.00000000
Si      -2.58071067       1.51088121       0.57005058       0.00000000
Si       3.04670241      -0.05551632      -0.03152481       0.00000000
Si       1.06329717       0.08886195      -2.86997328       0.00000000
Si       1.11860172      -3.01034313       0.15859620       0.00000000
Si      -1.68471180       2.78945073      -1.34931761       0.00000000
Si       0.99821862       1.71126450       3.33804877       0.00000000
