10
Lattice="16.28999089631971 0.0 0.0 0.0 16.28999089631971 0.0 0.0 0.0 34.71893929493243" Properties=species:S:1:pos:R:3:initial_magmoms:R:1 pbc="T T T"
Si      -1.35656604      -1.35640314       1.35723353       0.00000000
Si       1.35694071      -1.35687555      -1.35695578       0.00000000
Si      -1.35759231       1.35736425      -1.35716410       0.00000000
Si       1.35887922       1.35772263       1.35744185       0.00000000
Si       2.71489140      -0.00187335       2.71203674       0.00000000
Si      -0.00135207       2.71329498      -2.71432819       0.00000000
Si       2.71422351      -2.71438641       0.00076382       0.00000000
Si       2.71490769       0.00047241      -2.71415460       0.00000000
Si      -0.00158013       2.71210581       2.71759177       0.00000000
Si       2.71508688       2.71463076      -0.00006944       0.00000000
