10
Lattice="16.28999089631971 0.0 0.0 0.0 16.28999089631971 0.0 0.0 0.0 34.71893929493243" Properties=species:S:1:pos:R:3:initial_magmoms:R:1 pbc="T T T"
Si       2.06799921      -1.04914116       0.00305527       0.00000000
Si      -0.00462636      -0.19505646       2.31294231       0.00000000
Si      -2.03563098      -0.67943961      -0.90317899       0.00000000
Si       0.15047073       2.22509997      -0.75173489       0.00000000
Si       1.26161163       1.65268566       2.78827957       0.00000000
Si      -3.32333919       1.04269032       0.01742892       0.00000000
Si       1.61544672       2.97610155       0.88901366       0.00000000
Si       1.89855063      -2.25368892      -2.03668356       0.00000000
Si      -2.13200262       2.97585720      -0.72739690       0.00000000
Si      -1.81408698      -0.52694892      -3.30784879       0.00000000
