10
Lattice="16.28999089631971 0.0 0.0 0.0 16.28999089631971 0.0 0.0 0.0 34.71893929493243" Properties=species:S:1:pos:R:3:initial_magmoms:R:1 pbc="T T T"
Si       0.26757954       1.93973175      -1.35695578       0.00000000
Si       2.07164817       0.11202633       1.18804805       0.00000000
Si      -1.75609458      -0.20927763       1.61790348       0.00000000
Si      -0.33674688      -1.69251471      -1.70709648       0.00000000
Si      -1.87266582      -0.41930460      -3.01405696       0.00000000
Si      -0.77574609      -1.96589349       2.97600498       0.00000000
Si       2.54309706       1.72128285      -2.05595258       0.00000000
Si       2.69208540      -2.13739461       1.43184458       0.00000000
Si       1.89190431      -1.94413005      -2.56350903       0.00000000
Si       1.59526341       1.07878896       3.24045929       0.00000000
