10
Lattice="16.28999089631971 0.0 0.0 0.0 16.28999089631971 0.0 0.0 0.0 34.71893929493243" Properties=species:S:1:pos:R:3:initial_magmoms:R:1 pbc="T T T"
Si       1.68529824      -1.61722233      -0.58053571       0.00000000
Si      -2.13218181      -1.08939375      -0.73239643       0.00000000
Si      -0.39371301       1.60441839      -1.98241782       0.00000000
Si       0.00708615      -0.36891963       2.61152535       0.00000000
Si       0.31734549      -3.04966719       0.63535694       0.00000000
Si       1.50978978       2.67568137      -1.10739591       0.00000000
Si       1.63737306      -2.35473579       2.62114251       0.00000000
Si      -2.65784382       2.44190358      -1.71949115       0.00000000
Si      -1.66605975      -2.90528892      -2.20309152       0.00000000
Si       3.79314279      -1.45657035       0.58956264       0.00000000
