10
Lattice="16.28999089631971 0.0 0.0 0.0 16.28999089631971 0.0 0.0 0.0 34.71893929493243" Properties=species:S:1:pos:R:3:initial_magmoms:R:1 pbc="T T T"
Si      -1.35834165       1.35754344       1.36445508       0.00000000
Si       1.35883035      -1.35995436       1.36518417       0.00000000
Si       1.36099692       1.36014984      -1.38411642       0.00000000
Si      -1.35534429      -1.36300059      -1.39049082       0.00000000
Si      -2.71583622      -2.71427238       0.00562447       0.00000000
Si       2.71606428      -2.71531494       0.00704795       0.00000000
Si      -2.71326240       2.71930014       0.00711739       0.00000000
Si       2.71678104       2.71808328       0.00784648       0.00000000
Si      -2.71432125       0.00004887       2.72252187       0.00000000
Si       0.00027693       2.71563489       2.72238299       0.00000000
