10
Lattice="16.28999089631971 0.0 0.0 0.0 16.28999089631971 0.0 0.0 0.0 34.71893929493243" Properties=species:S:1:pos:R:3:initial_magmoms:R:1 pbc="T T T"
Si       1.44168129      -1.25095797       1.31911212       0.00000000
Si      -1.34299647      -1.34995230      -1.35372692       0.00000000
Si      -1.36484136       1.30052844       1.41042298       0.00000000
Si       1.36879983       1.36628624      -1.35108828       0.00000000
Si       2.15391267       0.58489245       2.58649299       0.00000000
Si       0.43934130       2.32383759       2.56628655       0.00000000
Si      -2.68912062      -2.72008791       0.04853710       0.00000000
Si      -2.69863398       0.00625536      -2.71116877       0.00000000
Si       0.01532889      -2.70923877      -2.71050911       0.00000000
Si      -2.69633709       2.72847467       0.02888617       0.00000000
