10
Lattice="16.28999089631971 0.0 0.0 0.0 16.28999089631971 0.0 0.0 0.0 34.71893929493243" Properties=species:S:1:pos:R:3:initial_magmoms:R:1 pbc="T T T"
Si       1.46497599       0.75100158       1.64074855       0.00000000
Si      -0.15047073      -2.22509997       0.75173489       0.00000000
Si       1.26534204       0.62944560      -1.92561761       0.00000000
Si      -2.28247335       0.75075723       0.02433799       0.00000000
Si      -2.18610171      -2.90453958      -0.15144410       0.00000000
Si      -3.47380992      -1.18240965       0.76916381       0.00000000
Si       1.11114090      -0.57241431       3.54001447       0.00000000
Si       1.91752848      -3.27424113       0.75479016       0.00000000
Si      -0.15509709      -2.42015643       3.06467720       0.00000000
Si      -3.01233051       1.14101676      -2.21413215       0.00000000
