10
Lattice="16.28999089631971 0.0 0.0 0.0 16.28999089631971 0.0 0.0 0.0 34.71893929493243" Properties=species:S:1:pos:R:3:initial_magmoms:R:1 pbc="T T T"
Si       0.35188029       2.14161372       0.75117939       0.00000000
Si      -1.45769436      -0.41557419       1.81649592       0.00000000
Si       2.26413081      -0.83748519      -0.26292667       0.00000000
Si      -1.49245722       0.77024007      -1.82479375       0.00000000
Si      -0.11109780      -0.71335539      -3.12699773       0.00000000
Si      -1.75622490      -2.64660372       1.03705530       0.00000000
Si       2.20812579      -1.13215500      -2.61010188       0.00000000
Si       0.52566201      -3.53129733       0.98709471       0.00000000
Si      -3.45874167       1.08066231       1.61005699       0.00000000
Si       0.32708691       3.88058981      -0.79544606       0.00000000
