10
Lattice="16.28999089631971 0.0 0.0 0.0 16.28999089631971 0.0 0.0 0.0 34.71893929493243" Properties=species:S:1:pos:R:3:initial_magmoms:R:1 pbc="T T T"
Si       1.28894625      -1.30238338       1.41563082       0.00000000
Si       1.35705474       1.32925911      -1.35494208       0.00000000
Si      -1.36003581      -1.38329865      -1.35251176       0.00000000
Si      -1.28006820       1.44250719       1.43760792       0.00000000
Si      -0.57492297      -2.16469243       2.58506951       0.00000000
Si      -2.28949434      -0.42574730       2.56486307       0.00000000
Si      -2.71498914       2.67316782       0.00777705       0.00000000
Si       0.00244350       2.68473372      -2.71259224       0.00000000
Si       2.62534527       0.04160466       2.77258660       0.00000000
Si       2.70428661       2.69978568       0.02656000       0.00000000
