10
Lattice="16.28999089631971 0.0 0.0 0.0 16.28999089631971 0.0 0.0 0.0 34.71893929493243" Properties=species:S:1:pos:R:3:initial_magmoms:R:1 pbc="T T T"
Si       1.35797146      -1.35729909       1.35671275       0.00000000
Si       1.35695700       1.35782037      -1.35765016       0.00000000
Si      -1.35760860       1.35809730       1.35785847       0.00000000
Si      -1.35796698      -1.35837423      -1.35810151       0.00000000
Si       0.00114030      -2.71193477      -2.71436291       0.00000000
Si       0.00092853      -2.71269551       2.71457122       0.00000000
Si      -2.71419093      -0.00091224       2.71460594       0.00000000
Si      -2.71536381      -2.71438315       0.00017359       0.00000000
Si       2.71515108      -2.71497122       0.00006944       0.00000000
Si      -2.71489140       2.71560816       0.00013888       0.00000000
