10
Lattice="16.28999089631971 0.0 0.0 0.0 16.28999089631971 0.0 0.0 0.0 34.71893929493243" Properties=species:S:1:pos:R:3:initial_magmoms:R:1 pbc="T T T"
Si       1.35461124      -1.35547461       1.35765016       0.00000000
Si      -1.35839052      -1.35630540      -1.35726825       0.00000000
Si       1.35658233       1.35900954      -1.35674747       0.00000000
Si      -1.35731538       1.36039419       1.36115678       0.00000000
Si      -0.00244350      -2.68473372       2.71259224       0.00000000
Si       0.00995319       2.71757925       2.70467632       0.00000000
Si       2.71511946      -2.71178327      -0.00003472       0.00000000
Si      -0.00117288      -2.71347091      -2.71443235       0.00000000
Si       2.71419093       0.00091224      -2.71460594       0.00000000
Si      -2.71523349       0.00040725      -2.71436291       0.00000000
