10
Lattice="16.28999089631971 0.0 0.0 0.0 16.28999089631971 0.0 0.0 0.0 34.71893929493243" Properties=species:S:1:pos:R:3:initial_magmoms:R:1 pbc="T T T"
Si       1.99261723       1.05450057       0.61445613       0.00000000
Si       0.79456919      -2.20431393      -0.12967531       0.00000000
Si      -0.21273763       0.62960850      -2.31207434       0.00000000
Si      -2.04836880       0.55486998       1.14919753       0.00000000
Si       1.33929050       3.22872687       0.25761467       0.00000000
Si      -3.23340114      -1.34429967       0.35541798       0.00000000
Si       2.20477819       0.39794841       2.83594870       0.00000000
Si       0.69963107       2.85477363      -2.19097461       0.00000000
Si      -2.57310228       0.40259106      -2.70998832       0.00000000
Si      -1.76590020      -0.28155636       3.31541752       0.00000000
