10
Lattice="16.28999089631971 0.0 0.0 0.0 16.28999089631971 0.0 0.0 0.0 34.71893929493243" Properties=species:S:1:pos:R:3:initial_magmoms:R:1 pbc="T T T"
Si       0.47591235       2.20291299      -0.66299324       0.00000000
Si      -0.18438651       0.45602226       2.40241307       0.00000000
Si       1.55056365      -1.74689073      -0.82894986       0.00000000
Si      -1.76313186      -1.32900336      -1.15277359       0.00000000
Si       1.35514881      -2.76982128       1.29671839       0.00000000
Si      -3.15863100      -1.08209583       0.69076840       0.00000000
Si      -0.29711331       1.52143713      -3.06828797       0.00000000
Si      -0.37273149      -3.17237976      -1.53791099       0.00000000
Si      -2.46174480       0.00524538       2.67704003       0.00000000
Si       2.83627701       2.42993043      -0.26507925       0.00000000
