10
Lattice="16.28999089631971 0.0 0.0 0.0 16.28999089631971 0.0 0.0 0.0 34.71893929493243" Properties=species:S:1:pos:R:3:initial_magmoms:R:1 pbc="T T T"
Si       1.61869236      -1.22683248      -1.20377574       0.00000000
Si       0.46434645       2.13079716       1.02139705       0.00000000
Si      -1.70163711      -0.88707195       1.47989561       0.00000000
Si      -1.00315449       1.06805385      -1.93860250       0.00000000
Si       0.18187785       2.96722350      -1.14482294       0.00000000
Si      -3.56039127      -0.91505817       0.08207562       0.00000000
Si      -3.28051278       0.61727697      -1.66397553       0.00000000
Si      -1.63356120       2.71041165       1.98064716       0.00000000
Si       0.53638083      -2.15778969      -3.04429717       0.00000000
Si       2.57576570      -2.75848344       0.28882702       0.00000000
