10
Lattice="16.28999089631971 0.0 0.0 0.0 16.28999089631971 0.0 0.0 0.0 34.71893929493243" Properties=species:S:1:pos:R:3:initial_magmoms:R:1 pbc="T T T"
Si      -1.85875416      -0.02798622      -1.39782000       0.00000000
Si      -0.51966729       1.62090387       1.62908298       0.00000000
Si       0.58248153      -2.03154219       1.06757326       0.00000000
Si       1.70163711       0.88707195      -1.47989561       0.00000000
Si      -1.54855998      -2.04771816      -2.48820361       0.00000000
Si       0.45548469      -1.33048575       3.32933983       0.00000000
Si       0.06807591       3.59748360       0.50075154       0.00000000
Si       0.92580957       0.95876424       3.40068729       0.00000000
Si       2.16598356       3.01786911      -0.45849857       0.00000000
Si      -1.57887567       1.50434892      -3.14387115       0.00000000
