10
Lattice="16.28999089631971 0.0 0.0 0.0 16.28999089631971 0.0 0.0 0.0 34.71893929493243" Properties=species:S:1:pos:R:3:initial_magmoms:R:1 pbc="T T T"
Si       0.58774320       1.97657973      -1.12833144       0.00000000
Si       0.51966729      -1.62090387      -1.62908298       0.00000000
Si       1.44547686      -0.66213963       1.77160431       0.00000000
Si      -2.22865119       0.25161534       0.85641255       0.00000000
Si       0.97515198      -2.95138962       1.70025685       0.00000000
Si       2.68565085       1.39696524      -2.08758155       0.00000000
Si      -1.33908687      -1.64889009      -3.02690298       0.00000000
Si      -1.89190431       1.94413005       2.56350903       0.00000000
Si       0.65119275       3.66541290       0.50755646       0.00000000
Si       1.10214882      -3.65244606      -0.56150972       0.00000000
