10
Lattice="16.28999089631971 0.0 0.0 0.0 16.28999089631971 0.0 0.0 0.0 34.71893929493243" Properties=species:S:1:pos:R:3:initial_magmoms:R:1 pbc="T T T"
Si      -1.34475579      -1.36014984       1.34987311       0.00000000
Si       1.35785525      -1.35511623      -1.35542815       0.00000000
Si      -1.35640314       1.35729909      -1.35594893       0.00000000
Si       1.35546714       1.36363590       1.37452357       0.00000000
Si      -2.57813685       0.01083285       2.76512203       0.00000000
Si      -2.71293660       2.71278999       0.00326358       0.00000000
Si       0.00032676      -2.71402803      -2.71286999       0.00000000
Si      -2.71373481       0.00021177      -2.71342550       0.00000000
Si       2.71546874       0.00112401      -2.71276584       0.00000000
Si       0.00135033       2.71503801      -2.71342550       0.00000000
