10
Lattice="16.28999089631971 0.0 0.0 0.0 16.28999089631971 0.0 0.0 0.0 34.71893929493243" Properties=species:S:1:pos:R:3:initial_magmoms:R:1 pbc="T T T"
Si      -0.47591235      -2.20291299       0.66299324       0.00000000
Si       2.36036466       0.22701744       0.39791399       0.00000000
Si      -0.77302566      -0.68147586      -2.40529474       0.00000000
Si      -1.23460281       1.94556357       1.37532211       0.00000000
Si       2.10451717       1.68946848      -2.35377180       0.00000000
Si      -0.66029886      -1.74689073       3.06540630       0.00000000
Si       3.20304473      -1.42081380      -1.09701494       0.00000000
Si       2.57310228      -0.40259106       2.70998832       0.00000000
Si      -2.61299745       0.98795592      -2.58562501       0.00000000
Si       0.52473348       0.15227892       3.85918585       0.00000000
