10
Lattice="16.28999089631971 0.0 0.0 0.0 16.28999089631971 0.0 0.0 0.0 34.71893929493243" Properties=species:S:1:pos:R:3:initial_magmoms:R:1 pbc="T T T"
Si      -1.91389581      -0.95672799      -0.85474604       0.00000000
Si      -0.14217912       2.34590661      -0.14134088       0.00000000
Si       0.96314625      -0.36654129       2.16306056       0.00000000
Si       1.27337301      -1.26358272      -1.61297338       0.00000000
Si      -1.71929547      -2.89761633       0.54026172       0.00000000
Si       3.27473050      -0.28584063      -1.02674377       0.00000000
Si       3.17825623      -0.87356754       1.30307196       0.00000000
Si       0.99958698       2.93498559      -2.04807137       0.00000000
Si      -2.72028339       1.74509883       1.93047826       0.00000000
Si       0.64086489       3.32091198       1.85805451       0.00000000
