10
Lattice="16.28999089631971 0.0 0.0 0.0 16.28999089631971 0.0 0.0 0.0 34.71893929493243" Properties=species:S:1:pos:R:3:initial_magmoms:R:1 pbc="T T T"
Si       0.92097144       2.17737027      -0.01548466       0.00000000
Si      -2.10784455      -0.16065198      -1.17009835       0.00000000
Si       1.88977262      -1.53411075      -0.41860649       0.00000000
Si      -2.15576973      -0.89816544       2.03157987       0.00000000
Si       0.58384989       2.06399187       2.41756307       0.00000000
Si      -0.25544349       0.01878237       3.35941134       0.00000000
Si      -1.63145979      -1.12741461      -3.22250959       0.00000000
Si      -0.11468160       3.32418627      -1.86083203       0.00000000
Si      -3.47579730      -1.59309684       0.04579431       0.00000000
Si       3.14979272      -0.72407421      -2.44685333       0.00000000
