10
Lattice="16.28999089631971 0.0 0.0 0.0 16.28999089631971 0.0 0.0 0.0 34.71893929493243" Properties=species:S:1:pos:R:3:initial_magmoms:R:1 pbc="T T T"
Si      -0.98554500      -1.71440847      -1.24019041       0.00000000
Si       1.25934783      -1.36836000       1.50504256       0.00000000
Si      -1.43207019       1.32507747       1.45216558       0.00000000
Si       1.98021633       0.79102611      -1.19498625       0.00000000
Si       0.62429796      -3.46561605      -0.94211561       0.00000000
Si       2.57584878      -2.73246831       0.19553023       0.00000000
Si       2.68663381       2.63080961       0.14351429       0.00000000
Si       3.57686765      -0.99217503      -0.94198194       0.00000000
Si      -2.67936291      -2.76423381      -0.01498123       0.00000000
Si       2.63361800      -0.03153744       2.84631578       0.00000000
