10
Lattice="16.28999089631971 0.0 0.0 0.0 16.28999089631971 0.0 0.0 0.0 34.71893929493243" Properties=species:S:1:pos:R:3:initial_magmoms:R:1 pbc="T T T"
Si      -1.34926812      -1.36407573      -1.39212609       0.00000000
Si       1.36616085       1.35190904      -1.38764734       0.00000000
Si       1.47187873      -1.29676545       1.44948181       0.00000000
Si      -1.42100928       1.43819313       1.37698862       0.00000000
Si      -2.68721469      -2.71937115      -0.01850520       0.00000000
Si       2.71913562      -2.71322982      -0.02086609       0.00000000
Si       2.72737510       2.71579454      -0.00576335       0.00000000
Si      -2.70995553       2.74057651      -0.03864220       0.00000000
Si      -2.70751203      -0.00395847      -2.74946378       0.00000000
Si       0.00760743       2.71352697      -2.75126916       0.00000000
