10
Lattice="16.28999089631971 0.0 0.0 0.0 16.28999089631971 0.0 0.0 0.0 34.71893929493243" Properties=species:S:1:pos:R:3:initial_magmoms:R:1 pbc="T T T"
Si      -1.14176610      -0.58907898       1.90673049       0.00000000
Si       2.06045435      -1.01551860       0.21063992       0.00000000
Si       1.06766289       2.02951801       0.54734438       0.00000000
Si      -1.27356849      -0.62890803      -1.91034126       0.00000000
Si       0.02013444       0.94236021      -3.36714877       0.00000000
Si      -0.57707325       3.49797518      -0.30212438       0.00000000
Si       2.82806196      -0.81598239      -2.02953145       0.00000000
Si       3.08865146       0.41739867       1.82357859       0.00000000
Si      -0.99958698      -2.93498559       2.04807137       0.00000000
Si      -1.19956302       2.65725642      -2.37175623       0.00000000
