10
Lattice="16.28999089631971 0.0 0.0 0.0 16.28999089631971 0.0 0.0 0.0 34.71893929493243" Properties=species:S:1:pos:R:3:initial_magmoms:R:1 pbc="T T T"
Si      -2.20810950       0.67579065       0.36427131       0.00000000
Si      -0.05618421      -2.00182923      -1.23252303       0.00000000
Si       0.07859925       1.67000749      -1.67963378       0.00000000
Si       2.38511664       1.43193077      -2.17989926       0.00000000
Si       1.20117573      -2.31888150       2.58392378       0.00000000
Si       2.11248720      -2.80989468      -1.39639652       0.00000000
Si      -2.60788239       1.05317035       2.61902465       0.00000000
Si      -0.12461850       3.84490331      -0.33444773       0.00000000
Si       3.12639309      -0.82259613      -2.35981290       0.00000000
Si      -3.87193752      -0.09399330      -1.09343889       0.00000000
