10
Lattice="16.28999089631971 0.0 0.0 0.0 16.28999089631971 0.0 0.0 0.0 34.71893929493243" Properties=species:S:1:pos:R:3:initial_magmoms:R:1 pbc="T T T"
Si      -0.65332674       2.17422630      -0.35684146       0.00000000
Si       0.21216096      -0.65655216       2.22149257       0.00000000
Si      -1.99261723      -1.05450057      -0.61445613       0.00000000
Si       2.05995195      -0.13317075      -1.28067823       0.00000000
Si      -1.19804805      -3.25881450      -0.74413144       0.00000000
Si      -1.29298617       1.80027306      -2.80543074       0.00000000
Si       3.50003682       0.34920873       0.73857641       0.00000000
Si       2.25184815       0.37743930       2.88740220       0.00000000
Si      -2.20535486      -0.42489207      -2.92653047       0.00000000
Si       0.93902076      -2.98986660       2.11289167       0.00000000
