10
Lattice="16.28999089631971 0.0 0.0 0.0 16.28999089631971 0.0 0.0 0.0 34.71893929493243" Properties=species:S:1:pos:R:3:initial_magmoms:R:1 pbc="T T T"
Si      -0.24518079      -0.66386637      -2.26273870       0.00000000
Si       1.97035695      -1.24566372       0.56518993       0.00000000
Si       0.91456947       2.24551134      -0.17734444       0.00000000
Si      -1.83337434      -0.70336962       1.44309352       0.00000000
Si      -1.20980943      -2.87008623      -2.11042662       0.00000000
Si       3.38680503      -1.12384710      -1.40552760       0.00000000
Si       1.94118156      -0.62872884      -3.26990097       0.00000000
Si      -1.86114879       0.64920537       3.40186773       0.00000000
Si      -0.03077181       3.34477683      -2.11778704       0.00000000
Si      -1.81209960      -3.14369307       1.65460141       0.00000000
