10
Lattice="16.28999089631971 0.0 0.0 0.0 16.28999089631971 0.0 0.0 0.0 34.71893929493243" Properties=species:S:1:pos:R:3:initial_magmoms:R:1 pbc="T T T"
Si       0.96312670       1.82555514       1.08861295       0.00000000
Si       1.79883954      -1.48559913       0.63900243       0.00000000
Si      -1.05781463      -0.38967309      -2.21902753       0.00000000
Si      -2.81495177      -0.14011029      -0.14397952       0.00000000
Si       0.63062337      -2.24831322      -2.23378308       0.00000000
Si       1.63681920       2.38993848      -2.25242716       0.00000000
Si      -2.70849662      -1.99221813       1.49531083       0.00000000
Si       0.19551910       1.62601893       3.32878432       0.00000000
Si       0.50440356       3.74806836      -0.16345686       0.00000000
Si       0.88647085      -3.71076426       0.51790271       0.00000000
