10
Lattice="16.28999089631971 0.0 0.0 0.0 16.28999089631971 0.0 0.0 0.0 34.71893929493243" Properties=species:S:1:pos:R:3:initial_magmoms:R:1 pbc="T T T"
Si      -0.96312670      -1.82555514      -1.08861295       0.00000000
Si      -0.45872314       1.92251322      -1.25206981       0.00000000
Si      -0.76760761      -0.19953621       2.24017137       0.00000000
Si       2.34556778      -0.19792350       0.42246029       0.00000000
Si       0.83571284      -3.31115427      -0.44961052       0.00000000
Si       0.67369250       0.56438334      -3.34104011       0.00000000
Si      -2.80792752       1.75834260      -1.33761732       0.00000000
Si      -2.82806196       0.81598239       2.02953145       0.00000000
Si      -0.34179352       3.51441830       0.70028140       0.00000000
Si       3.28455596       1.91593206      -0.01229051       0.00000000
