10
Lattice="10.86 0.0 0.0 0.0 10.86 0.0 0.0 0.0 10.86" Properties=species:S:1:pos:R:3:initial_magmoms:R:1 pbc="T T T"
Si      -1.23360912      -1.39548828       1.31470074       0.00000000
Si      -1.23360912       1.31951172      -1.40029926       0.00000000
Si       1.48139088      -1.39548828      -1.40029926       0.00000000
Si      -2.62890192      -0.01128354       2.47718772       0.00000000
Si      -2.53872048       2.68965276       0.06805962       0.00000000
Si      -2.59110912      -2.75298828      -0.04279926       0.00000000
Si      -2.59110912      -0.03798828      -2.75779926       0.00000000
Si       0.12389088      -2.75298828       2.67220074       0.00000000
Si       0.12389088       2.67701172      -2.75779926       0.00000000
Si       0.12389088      -2.75298828      -2.75779926       0.00000000
