10
Lattice="10.86 0.0 0.0 0.0 10.86 0.0 0.0 0.0 10.86" Properties=species:S:1:pos:R:3:initial_magmoms:R:1 pbc="T T T"
Si       1.33141428       1.38358572      -1.28850642       0.00000000
Si      -1.38358572      -1.33141428      -1.28850642       0.00000000
Si       1.33141428      -1.33141428       1.42649358       0.00000000
Si      -1.37090124       1.37090124       1.35015864       0.00000000
Si      -0.02608572      -2.68891428      -2.64600642       0.00000000
Si       2.68891428       0.02608572      -2.64600642       0.00000000
Si       2.68891428      -2.68891428       0.06899358       0.00000000
Si      -2.74108572       0.02608572      -2.64600642       0.00000000
Si      -0.02608572       2.74108572      -2.64600642       0.00000000
Si      -2.70044760       2.70044760       0.06459528       0.00000000
