10
Lattice="16.290000149 0.0 0.0 0.0 16.290000149 0.0 0.0 0.0 29.1751946751" Properties=species:S:1:pos:R:3:initial_magmoms:R:1 pbc="T T T"
Si       0.23045463      -0.45061398       2.29236273       0.00000000
Si       1.61248195      -0.08420301      -1.70593198       0.00000000
Si      -1.93686473      -1.24020658      -0.63327678       0.00000000
Si      -0.34492446       2.30561332      -0.53513142       0.00000000
H       -0.25102890       1.85636443      -2.03275251       0.00000000
H        1.32646213      -2.16068933       1.48968544       0.00000000
H       -2.86389606      -0.33280470      -1.41525952       0.00000000
Si      -1.53005455       1.11772207       2.63519986       0.00000000
Si      -2.28802826       2.27957538       0.80724846       0.00000000
Si       0.04225626      -0.86451031      -3.29250824       0.00000000
