10
Lattice="16.290000149 0.0 0.0 0.0 16.290000149 0.0 0.0 0.0 29.1751946751" Properties=species:S:1:pos:R:3:initial_magmoms:R:1 pbc="T T T"
Si      -1.50024385      -1.35993808       1.16321501       0.00000000
Si       1.39162213      -1.35558865      -1.31165840       0.00000000
Si       1.33850044       1.28503666       1.43396082       0.00000000
Si      -1.34224714       1.34589610      -1.38436299       0.00000000
H       -0.85175524      -2.19634814       2.24441855       0.00000000
Si      -0.00775404      -2.72665281      -2.62643855       0.00000000
Si       2.68946273       2.67019166       0.07789777       0.00000000
Si      -2.93387790      -0.13251915       2.44619420       0.00000000
Si       2.74321974      -2.66445758       0.11813036       0.00000000
Si       2.73163754      -0.00747711      -2.68563502       0.00000000
