10
Lattice="16.290000149 0.0 0.0 0.0 16.290000149 0.0 0.0 0.0 29.1751946751" Properties=species:S:1:pos:R:3:initial_magmoms:R:1 pbc="T T T"
H       -0.88819597       0.73844200       0.99198579       0.00000000
Si       1.15945705       1.63857853      -1.18139116       0.00000000
Si       1.39914046      -1.17605656       1.45779695       0.00000000
Si      -1.60783930      -1.11174364      -1.34071690       0.00000000
Si      -0.60217615       2.81492832      -2.20363163       0.00000000
Si      -1.98420347       2.44851734       1.79466309       0.00000000
Si       2.61627828       0.43030035      -2.52639681       0.00000000
Si      -2.21465810       2.89913133      -0.49769965       0.00000000
Si      -0.06486678      -2.34922979       2.87485658       0.00000000
Si       2.85685063      -2.45330660       0.10894018       0.00000000
