10
Lattice="16.290000149 0.0 0.0 0.0 16.290000149 0.0 0.0 0.0 29.1751946751" Properties=species:S:1:pos:R:3:initial_magmoms:R:1 pbc="T T T"
H        0.71293186       0.08747730       1.32878424       0.00000000
H       -1.40791213       0.83004067       1.61738527       0.00000000
Si       1.61085295      -0.78833827      -1.52516248       0.00000000
Si      -1.87119974      -1.46610001      -0.16122213       0.00000000
Si      -0.33946731       1.94628035      -1.37706919       0.00000000
H        1.87133006       1.70114843       0.19559051       0.00000000
H        2.52403778       1.28133883       0.23976175       0.00000000
Si      -0.81013429       0.94126879       3.01633585       0.00000000
Si       0.12719232      -1.80439445      -2.99638002       0.00000000
Si      -0.99764848      -3.24472368      -1.44924862       0.00000000
