10
Lattice="16.290000149 0.0 0.0 0.0 16.290000149 0.0 0.0 0.0 29.1751946751" Properties=species:S:1:pos:R:3:initial_magmoms:R:1 pbc="T T T"
Si      -2.20067965      -0.17938548      -0.66370650       0.00000000
Si       1.32833711      -0.23350086      -1.90368145       0.00000000
Si       0.53002936       0.91758313       2.09410795       0.00000000
Si       0.80153480      -2.25235316      -0.19947081       0.00000000
Si       0.78601043       2.13254021      -1.16461542       0.00000000
H        2.09447211      -2.18960408       0.60226354       0.00000000
H       -2.30017897      -1.23826807      -1.73779130       0.00000000
H        1.97671170       2.49813668      -0.26724478       0.00000000
H        3.38164276       0.46683882       0.18263672       0.00000000
Si      -2.62617446       1.97060132      -1.53058906       0.00000000
