10
Lattice="16.290000149 0.0 0.0 0.0 16.290000149 0.0 0.0 0.0 29.1751946751" Properties=species:S:1:pos:R:3:initial_magmoms:R:1 pbc="T T T"
Si       1.43839072      -0.29468610      -0.44722656       0.00000000
Si      -1.98356816       0.08661393       1.05500421       0.00000000
Si      -1.22487769       1.95862817      -0.22631198       0.00000000
Si       0.64961263       2.66779703       1.05185329       0.00000000
Si       1.08326872      -0.06064767      -2.80647868       0.00000000
Si      -0.59204377       1.62090388      -2.55510520       0.00000000
Si       1.86388553      -2.44467290       0.41965600       0.00000000
Si      -0.96774004      -1.25335261       2.67478185       0.00000000
Si       2.65548179       1.29279070       0.96990017       0.00000000
H        1.62233740       2.40277502      -1.42973042       0.00000000
