10
Lattice="16.290000149 0.0 0.0 0.0 16.290000149 0.0 0.0 0.0 29.1751946751" Properties=species:S:1:pos:R:3:initial_magmoms:R:1 pbc="T T T"
Si       1.30285792       1.23825178      -1.49785449       0.00000000
Si       1.44676378      -1.35047359       1.28437960       0.00000000
Si      -1.50449554       1.33413472       1.24732710       0.00000000
Si      -1.43557255      -1.40928049      -1.31626808       0.00000000
Si       2.50473413      -2.81567766      -0.19436515       0.00000000
Si      -2.81718937      -0.15227892       2.51997826       0.00000000
Si      -0.11797218       2.60990237      -2.75054983       0.00000000
Si       0.13251915      -2.70881525       2.66836330       0.00000000
Si       2.48560967      -0.21378996      -2.91019649       0.00000000
Si       3.15753960       2.17013753      -0.38969308       0.00000000
