10
Lattice="16.290000149 0.0 0.0 0.0 16.290000149 0.0 0.0 0.0 29.1751946751" Properties=species:S:1:pos:R:3:initial_magmoms:R:1 pbc="T T T"
Si       1.42083010      -1.37165059       1.25269533       0.00000000
Si       1.37751499       1.31955517      -1.36306510       0.00000000
Si      -1.33788142       1.33094188       1.40951201       0.00000000
Si      -1.35560494      -1.38269521      -1.35127832       0.00000000
Si       0.11797218      -2.60990237       2.75054983       0.00000000
Si      -2.68656149       2.68364720       0.02482809       0.00000000
Si       0.00280188       2.67110390      -2.70807075       0.00000000
Si      -2.80497350      -0.05108544       2.62331680       0.00000000
Si       2.78694210       2.64482813      -0.00633102       0.00000000
Si       0.07602543       2.72585459       2.70751642       0.00000000
