10
Lattice="16.290000149 0.0 0.0 0.0 16.290000149 0.0 0.0 0.0 29.1751946751" Properties=species:S:1:pos:R:3:initial_magmoms:R:1 pbc="T T T"
Si       1.34179591       1.36166482       1.35422501       0.00000000
Si      -1.33656193       1.37510407      -1.35337893       0.00000000
Si       1.36543922      -1.35174421      -1.35008213       0.00000000
Si      -1.35410626      -1.34697124       1.37482270       0.00000000
Si      -2.69477327       0.00925272      -2.68505152       0.00000000
Si       2.67129938       0.00263898       2.71941990       0.00000000
Si      -0.00532683      -2.72077211      -2.67524865       0.00000000
Si       2.69423570      -2.71181261       0.02447799       0.00000000
Si      -2.68348430       2.72433962       0.01245781       0.00000000
Si       2.69289992       2.72671796      -0.00974452       0.00000000
