10
Lattice="16.290000149 0.0 0.0 0.0 16.290000149 0.0 0.0 0.0 29.1751946751" Properties=species:S:1:pos:R:3:initial_magmoms:R:1 pbc="T T T"
Si      -1.34685721      -1.01766889       1.63807048       0.00000000
Si       1.23173578      -1.43020826      -1.41841044       0.00000000
Si      -1.35159760       1.30886893      -1.42978877       0.00000000
Si       1.42799770       1.27233046       1.40262666       0.00000000
Si       0.08511525      -2.64566169       2.56546239       0.00000000
Si      -0.06300972       2.53459370       2.69036140       0.00000000
Si       2.72333681       2.62936892      -0.04563000       0.00000000
Si      -1.44883261       0.70737697       3.45320522       0.00000000
Si      -2.74321974       2.66445758      -0.11813036       0.00000000
Si       2.61527807      -0.09466119      -2.80198570       0.00000000
