10
Lattice="16.28999089631971 0.0 0.0 0.0 16.28999089631971 0.0 0.0 0.0 34.36671206372826" Properties=species:S:1:pos:R:3:initial_magmoms:R:1 pbc="T T T"
Si       1.35593701       1.35485559       1.38152198       0.00000000
Si      -1.35530773      -1.36692322       1.37282719       0.00000000
Si       1.40376445      -1.27916736      -1.43999353       0.00000000
Si      -1.45247758       1.33696917      -1.37731205       0.00000000
Si       2.68843132       2.70000234       0.03408149       0.00000000
Si       2.70670870      -2.70768373       0.00788373       0.00000000
Si      -2.70886012      -2.72084444      -0.01316589       0.00000000
Si      -2.73124258       2.70702333       0.02447255       0.00000000
Si      -0.00085441       2.70837540       2.73567429       0.00000000
Si       2.71495144      -0.00488700       2.73440272       0.00000000
