10
Lattice="16.28999089631971 0.0 0.0 0.0 16.28999089631971 0.0 0.0 0.0 34.36671206372826" Properties=species:S:1:pos:R:3:initial_magmoms:R:1 pbc="T T T"
Si       0.33482466       1.97719875      -1.30459549       0.00000000
Si       0.19104912       0.96356979       2.18421197       0.00000000
Si       1.96328709      -1.39720959      -0.08248016       0.00000000
Si      -1.91941160      -1.52837667      -0.74438340       0.00000000
Si      -3.10736979      -0.24966054       0.96536148       0.00000000
Si      -0.82303596       1.19101077      -3.27315622       0.00000000
Si      -2.02592540       0.44290881       2.99471696       0.00000000
Si      -0.99204471      -3.51145611       0.18056281       0.00000000
Si       1.36309833      -3.70364553       0.27685839       0.00000000
Si      -3.08329627       0.28499355      -2.51805040       0.00000000
