10
Lattice="16.28999089631971 0.0 0.0 0.0 16.28999089631971 0.0 0.0 0.0 34.36671206372826" Properties=species:S:1:pos:R:3:initial_magmoms:R:1 pbc="T T T"
Si      -0.97439124       1.71411525      -1.18520546       0.00000000
Si      -1.49047961      -1.73874573      -0.64056150       0.00000000
Si       2.25062640      -0.78348384      -0.17901630       0.00000000
Si       1.50913818       1.90169460       2.25425137       0.00000000
Si      -0.71863009      -3.05286003       1.32583413       0.00000000
Si       1.70792505      -2.96839638       0.47522316       0.00000000
Si      -3.21210197       1.32546843      -0.59021424       0.00000000
Si      -0.36360909      -2.42519004      -2.61032507       0.00000000
Si       3.37786182       0.94540644       1.00447082       0.00000000
Si       0.76965363      -0.48340575      -3.60204584       0.00000000
