10
Lattice="16.28999089631971 0.0 0.0 0.0 16.28999089631971 0.0 0.0 0.0 34.36671206372826" Properties=species:S:1:pos:R:3:initial_magmoms:R:1 pbc="T T T"
Si      -0.73818135       2.19090726       0.42710974       0.00000000
Si       2.18437497       0.34371900      -0.90924061       0.00000000
Si       0.03642444      -2.01218057       1.30112445       0.00000000
Si      -1.94971752      -0.37603999      -1.42096124       0.00000000
Si      -2.56619628       1.35985662       1.63180113       0.00000000
Si       1.23527070      -3.27410171      -0.30177427       0.00000000
Si      -0.80172864       2.91923316      -1.78799793       0.00000000
Si       2.57799024      -1.87959119      -1.70273407       0.00000000
Si       1.43552367       2.23273998      -2.46079543       0.00000000
Si       3.46353093       0.74929113       1.09911680       0.00000000
