10
Lattice="16.28999089631971 0.0 0.0 0.0 16.28999089631971 0.0 0.0 0.0 34.36671206372826" Properties=species:S:1:pos:R:3:initial_magmoms:R:1 pbc="T T T"
Si      -1.97955428       0.48275415       1.11794977       0.00000000
Si       1.33087671      -1.73503065       0.85490681       0.00000000
Si      -0.31262139      -0.90661506      -2.17850710       0.00000000
Si       0.94993506       2.21658845       0.41325994       0.00000000
Si       1.56641382       0.48069184      -2.63950243       0.00000000
Si      -3.58266689       0.67583138      -0.58224116       0.00000000
Si       3.55255578      -1.15544874       0.08258326       0.00000000
Si       3.51613134       0.85673183      -1.21854119       0.00000000
Si       1.51005042      -1.47079056       3.20438839       0.00000000
Si      -2.17671867       2.71165784       1.78603902       0.00000000
