10
Lattice="16.28999089631971 0.0 0.0 0.0 16.28999089631971 0.0 0.0 0.0 34.36671206372826" Properties=species:S:1:pos:R:3:initial_magmoms:R:1 pbc="T T T"
Si       0.60771474      -1.33592661       1.79827358       0.00000000
Si      -1.51011558       1.71610263       0.56437046       0.00000000
Si      -0.65982645      -1.87854651      -1.26421458       0.00000000
Si       1.87414821       1.06197768      -0.98247611       0.00000000
Si      -1.66369770       2.67074550      -1.64094268       0.00000000
Si       2.93210226      -1.72854819       1.11657510       0.00000000
Si      -0.15136668       2.84811102       2.24425065       0.00000000
Si       3.61056447       0.45111897       0.49216596       0.00000000
Si      -2.48784138      -2.70959715      -0.05952318       0.00000000
Si      -1.32072804      -2.77588116       2.02739658       0.00000000
