10
Lattice="16.28999089631971 0.0 0.0 0.0 16.28999089631971 0.0 0.0 0.0 34.36671206372826" Properties=species:S:1:pos:R:3:initial_magmoms:R:1 pbc="T T T"
Si       1.82801493       0.83105064      -1.20469140       0.00000000
Si       1.16711334      -0.06628401       2.08691976       0.00000000
Si      -1.75115871       1.63229058      -0.13406462       0.00000000
Si      -0.94993506      -2.21658845      -0.41325994       0.00000000
Si       2.56619628      -1.35985662      -1.63180113       0.00000000
Si      -3.12665373       0.49506939       1.37277908       0.00000000
Si      -2.92948934      -1.73383430       0.70468982       0.00000000
Si      -2.05708491       1.38157119      -2.47722272       0.00000000
Si       0.61647876      -1.73589661      -3.05276237       0.00000000
Si       2.48784138       2.70959715       0.05952318       0.00000000
