10
Lattice="16.28999089631971 0.0 0.0 0.0 16.28999089631971 0.0 0.0 0.0 34.36671206372826" Properties=species:S:1:pos:R:3:initial_magmoms:R:1 pbc="T T T"
Si       1.39266468      -1.18498347      -1.51890642       0.00000000
Si       1.92223629       0.87131952       1.14039124       0.00000000
Si      -1.41850062      -1.49797953       1.29782524       0.00000000
Si      -1.31567814       1.53730359      -1.48708283       0.00000000
Si       2.68205076      -2.66954004      -0.19125086       0.00000000
Si      -2.77428474      -2.63142144      -0.18863899       0.00000000
Si       0.05079222      -2.52457533      -2.88962350       0.00000000
Si      -0.69017472       2.48863959       2.88305945       0.00000000
Si       1.95457194       0.12362481       3.39532995       0.00000000
Si      -2.66222583       0.18785628      -2.88914236       0.00000000
