10
Lattice="16.28999089631971 0.0 0.0 0.0 16.28999089631971 0.0 0.0 0.0 34.36671206372826" Properties=species:S:1:pos:R:3:initial_magmoms:R:1 pbc="T T T"
Si       1.95941007      -0.93419892      -1.02086375       0.00000000
Si       1.61702685       1.01274930       1.46051735       0.00000000
Si      -0.89994105       2.06580006      -0.95525766       0.00000000
Si      -1.42161201      -2.01210822       0.70829833       0.00000000
Si      -2.09852667       0.64260792      -2.45488435       0.00000000
Si       0.60362595      -2.06764083      -2.50732798       0.00000000
Si      -1.22660442      -3.00762270      -1.39515182       0.00000000
Si      -3.02915808      -1.29472920      -1.36927367       0.00000000
Si       0.51852699      -2.89758375       2.06066357       0.00000000
Si       2.66517432      -2.33862498       0.85635021       0.00000000
