10
Lattice="16.28999089631971 0.0 0.0 0.0 16.28999089631971 0.0 0.0 0.0 34.36671206372826" Properties=species:S:1:pos:R:3:initial_magmoms:R:1 pbc="T T T"
Si       0.27347652       0.19675062      -2.33439459       0.00000000
Si      -0.77540400      -2.15756163       0.60148653       0.00000000
Si      -1.92521736       1.37036367       0.25472621       0.00000000
Si       2.04722946       0.26945289       1.29799707       0.00000000
Si      -1.17533979       3.04284168       1.69245841       0.00000000
Si      -2.18080746      -1.69588674       2.46581297       0.00000000
Si       3.53427840      -1.21059135       0.19217876       0.00000000
Si      -3.36816927       0.19443744       1.65871028       0.00000000
Si       2.91551904       2.30834187       0.65131829       0.00000000
Si       1.50995268      -1.62800631      -3.11778423       0.00000000
