10
Lattice="16.28999089631971 0.0 0.0 0.0 16.28999089631971 0.0 0.0 0.0 34.36671206372826" Properties=species:S:1:pos:R:3:initial_magmoms:R:1 pbc="T T T"
Si      -1.37253024       1.28540971       1.37278252       0.00000000
Si       1.64761947       0.60698169      -1.57325195       0.00000000
Si       1.33312473      -1.45818306       1.36882691       0.00000000
Si      -1.91185956      -0.89360424      -1.24439941       0.00000000
Si      -0.40935141      -0.15714963      -2.98998608       0.00000000
Si      -0.71423505       3.50986688      -1.04851763       0.00000000
Si      -0.00548973       2.62634126       2.73793218       0.00000000
Si      -2.67547449       2.71392607      -0.07509474       0.00000000
Si       3.48000012      -1.03081491      -1.17924730       0.00000000
Si       2.70402597      -0.08206902       2.73659188       0.00000000
