10
Lattice="16.28999089631971 0.0 0.0 0.0 16.28999089631971 0.0 0.0 0.0 34.36671206372826" Properties=species:S:1:pos:R:3:initial_magmoms:R:1 pbc="T T T"
Si      -1.35384561       1.35439768       1.36295020       0.00000000
Si       1.36213722      -1.36251189       1.36350006       0.00000000
Si       1.34957763       1.39483388      -1.34878423       0.00000000
Si      -1.37090124      -1.37611404      -1.36776497       0.00000000
Si       2.65070880       0.02568933      -2.68400047       0.00000000
Si      -2.70951570       2.70841028       0.00134030       0.00000000
Si      -2.71116099      -2.71585251       0.00453641       0.00000000
Si       2.72466540       2.70621765       0.01055059       0.00000000
Si      -2.71127502      -0.00373041       2.71992058       0.00000000
Si       0.00415395       2.71123822       2.72047045       0.00000000
