10
Lattice="16.28999089631971 0.0 0.0 0.0 16.28999089631971 0.0 0.0 0.0 34.36671206372826" Properties=species:S:1:pos:R:3:initial_magmoms:R:1 pbc="T T T"
Si      -1.35716877      -1.35596331      -1.35776082       0.00000000
Si       1.36050822      -1.35627282       1.35635178       0.00000000
Si       1.35720135       1.35889551      -1.35734842       0.00000000
Si      -1.35584928       1.35860229       1.35923859       0.00000000
Si       0.00379557      -2.70686043       2.71156946       0.00000000
Si       0.00619020       2.70352098       2.72304795       0.00000000
Si       2.71298547      -2.71500543      -0.00082480       0.00000000
Si      -2.71488000      -2.71360449      -0.00089354       0.00000000
Si       0.00014661      -2.71350675      -2.71500614       0.00000000
Si       2.71425609       0.00164529      -2.71521234       0.00000000
