10
Lattice="16.28999089631971 0.0 0.0 0.0 16.28999089631971 0.0 0.0 0.0 34.36671206372826" Properties=species:S:1:pos:R:3:initial_magmoms:R:1 pbc="T T T"
Si       0.47611597       1.25350410      -1.89511903       0.00000000
Si      -0.66773266      -2.25146763      -0.37617824       0.00000000
Si      -1.97915911       0.98775229       0.94364171       0.00000000
Si       1.93549798      -0.25266588       1.46099848       0.00000000
Si      -0.96676819      -2.48004891       1.91470807       0.00000000
Si      -2.41353196      -0.68772537       2.63922749       0.00000000
Si       1.18315736      -2.17749474       2.74366799       0.00000000
Si       0.27895159       3.48240778      -1.22702977       0.00000000
Si      -3.54200542       0.78464369      -0.79607096       0.00000000
Si       2.45567026       0.77074995      -3.01306880       0.00000000
