10
Lattice="16.28999089631971 0.0 0.0 0.0 16.28999089631971 0.0 0.0 0.0 34.36671206372826" Properties=species:S:1:pos:R:3:initial_magmoms:R:1 pbc="T T T"
Si      -0.74987757      -1.67247801      -1.43773220       0.00000000
Si      -0.70149627      -0.47504898       2.20063927       0.00000000
Si      -1.37642355       1.84450041      -0.60361727       0.00000000
Si       2.27289483       0.68650947      -0.38734743       0.00000000
Si       0.22006161       3.54749841      -0.42277953       0.00000000
Si      -2.19282948      -2.84840424      -0.03374813       0.00000000
Si       1.86782769       2.52300239      -1.77840961       0.00000000
Si       1.17533979      -3.04284168      -1.69245841       0.00000000
Si       2.75188599       1.84236642       1.60399845       0.00000000
Si      -1.55559726       1.58026032      -2.95309885       0.00000000
