10
Lattice="16.28999089631971 0.0 0.0 0.0 16.28999089631971 0.0 0.0 0.0 34.36671206372826" Properties=species:S:1:pos:R:3:initial_magmoms:R:1 pbc="T T T"
Si      -0.35254818       0.43197822       2.30699438       0.00000000
Si       1.50589647      -1.41165882      -1.38013356       0.00000000
Si       1.11658176       2.21965911      -0.04488295       0.00000000
Si      -2.37317607       0.34935534      -0.75352495       0.00000000
Si      -1.08576108       1.75526379      -2.23655250       0.00000000
Si      -2.18492883       2.06977482       1.91298973       0.00000000
Si       0.38677347      -1.26301257      -3.51145513       0.00000000
Si       0.77815701       1.05793776      -3.64414508       0.00000000
Si      -0.51712605       3.74600020      -0.93370972       0.00000000
Si      -1.22339529      -1.48561542       3.49626302       0.00000000
