10
Lattice="16.28999089631971 0.0 0.0 0.0 16.28999089631971 0.0 0.0 0.0 34.36671206372826" Properties=species:S:1:pos:R:3:initial_magmoms:R:1 pbc="T T T"
Si      -1.35568638       1.35750271       1.35683292       0.00000000
Si      -1.35668007      -1.35796052      -1.35717658       0.00000000
Si       1.35811359       1.35701401      -1.35748589       0.00000000
Si       1.35809730      -1.36175965       1.36006339       0.00000000
Si       2.71339272       2.71362892      -0.00010310       0.00000000
Si      -2.71480995       2.71330312       0.00027493       0.00000000
Si       0.00146610       2.71408504      -2.71411260       0.00000000
Si      -2.71417464      -0.00080147      -2.71479994       0.00000000
Si       0.01032786       2.71208137       2.71748054       0.00000000
Si       2.71538010      -0.00177561      -2.71428444       0.00000000
