10
Lattice="16.28999089631971 0.0 0.0 0.0 16.28999089631971 0.0 0.0 0.0 34.36671206372826" Properties=species:S:1:pos:R:3:initial_magmoms:R:1 pbc="T T T"
Si       1.36058967      -1.35226742      -1.35958226       0.00000000
Si      -1.35809730       1.36175965      -1.36006339       0.00000000
Si       1.35821133       1.35239779       1.37326021       0.00000000
Si      -1.34328969      -1.35523220       1.38676634       0.00000000
Si      -2.61895959       0.16796003       2.68974659       0.00000000
Si       2.71261080      -2.71096745      -0.00364287       0.00000000
Si      -2.71485882      -2.71174937       0.00542994       0.00000000
Si       0.00035838      -2.71121180      -2.71665574       0.00000000
Si      -2.71477737       0.00379913      -2.71723997       0.00000000
Si       2.71521720       0.00336458      -2.71706814       0.00000000
