10
Lattice="16.28999089631971 0.0 0.0 0.0 16.28999089631971 0.0 0.0 0.0 34.36671206372826" Properties=species:S:1:pos:R:3:initial_magmoms:R:1 pbc="T T T"
Si      -1.46621403       1.19658032      -1.34439216       0.00000000
Si       1.27566990      -1.52319223      -1.30298025       0.00000000
Si      -1.17965664      -1.68917104       1.29270460       0.00000000
Si       0.90438822       1.85819541       1.44027534       0.00000000
Si      -0.44660664       0.24739134       2.68517581       0.00000000
Si      -2.68035660       2.53535442       0.14922035       0.00000000
Si      -0.09482409       2.55130233      -2.69297706       0.00000000
Si       2.70477531       2.57897904       0.08667290       0.00000000
Si       2.61895959      -0.16796003      -2.68974659       0.00000000
Si      -0.82372014       3.45261174       1.46237315       0.00000000
