10
Lattice="16.28999089631971 0.0 0.0 0.0 16.28999089631971 0.0 0.0 0.0 34.36671206372826" Properties=species:S:1:pos:R:3:initial_magmoms:R:1 pbc="T T T"
Si       0.70949466       1.91511756       1.12874092       0.00000000
Si       1.27239561      -1.39454129      -1.40315927       0.00000000
Si      -1.80038709      -0.72078363       1.35360244       0.00000000
Si      -1.43358516       1.32690195      -1.41900233       0.00000000
Si      -0.24293277       0.35106579       3.35250900       0.00000000
Si       2.47036221      -2.74468244       0.20434458       0.00000000
Si      -2.70477531      -2.57897904      -0.08667290       0.00000000
Si       2.63955015       2.74592385      -0.04440182       0.00000000
Si      -2.73184929       2.67112017       0.03333573       0.00000000
Si       2.63122596      -0.02480967      -2.77779416       0.00000000
