10
Lattice="16.28999089631971 0.0 0.0 0.0 16.28999089631971 0.0 0.0 0.0 34.36671206372826" Properties=species:S:1:pos:R:3:initial_magmoms:R:1 pbc="T T T"
Si      -2.15938611      -0.50991610       0.74115293       0.00000000
Si       1.23114933       0.70737696       1.85944636       0.00000000
Si       0.06597450       1.88839544      -1.40786751       0.00000000
Si       1.17698508      -1.71054515      -1.17774788       0.00000000
Si       3.37862745       0.29626623       0.92855471       0.00000000
Si      -0.54380907       3.48000989       0.30091510       0.00000000
Si      -1.75431897      -2.34640901       2.13221511       0.00000000
Si      -3.36113199      -0.87307625      -1.20585987       0.00000000
Si       0.42613011       2.86880909       2.40745826       0.00000000
Si       3.41340660      -1.56970181      -0.52471125       0.00000000
