10
Lattice="16.28999089631971 0.0 0.0 0.0 16.28999089631971 0.0 0.0 0.0 34.36671206372826" Properties=species:S:1:pos:R:3:initial_magmoms:R:1 pbc="T T T"
Si       0.36318555       0.91836015      -2.10142252       0.00000000
Si       1.43268921      -1.81293269       0.31469616       0.00000000
Si      -2.14329159      -0.97956887       0.16269211       0.00000000
Si       0.36131220       1.34076963       1.96323389       0.00000000
Si       0.45154251      -2.09885477       2.46753131       0.00000000
Si      -0.44183367       3.07979229      -1.55341062       0.00000000
Si      -1.92775860      -2.26076108       2.13070297       0.00000000
Si       1.47758445      -0.16141598       3.37711558       0.00000000
Si       3.63913713      -0.96511964       0.40298429       0.00000000
Si      -2.62228275      -2.13542582      -1.82865377       0.00000000
