10
Lattice="16.28999089631971 0.0 0.0 0.0 16.28999089631971 0.0 0.0 0.0 34.36671206372826" Properties=species:S:1:pos:R:3:initial_magmoms:R:1 pbc="T T T"
Si      -1.35645201      -1.35715248      -1.35782955       0.00000000
Si      -1.35529542       1.36018242       1.35600812       0.00000000
Si       1.35795069       1.35837423      -1.35789829       0.00000000
Si       1.35803214      -1.36156707       1.35707348       0.00000000
Si      -0.01342296       2.69977428       2.72672519       0.00000000
Si       2.71557558       2.71334385      -0.00182144       0.00000000
Si      -2.71507059       0.00053757      -2.71400950       0.00000000
Si       2.71386513      -2.71526607      -0.00051550       0.00000000
Si       0.00193851      -2.71480995      -2.71452500       0.00000000
Si      -2.71583622       2.71388142      -0.00068733       0.00000000
