10
Lattice="16.28999089631971 0.0 0.0 0.0 16.28999089631971 0.0 0.0 0.0 34.36671206372826" Properties=species:S:1:pos:R:3:initial_magmoms:R:1 pbc="T T T"
Si       2.06964450      -1.05883371      -0.30057143       0.00000000
Si       0.02187747       2.36283192      -0.00536121       0.00000000
Si      -1.11843882      -1.04392836      -1.81779388       0.00000000
Si      -0.46037169      -1.05130773       2.11499738       0.00000000
Si       3.08330604       0.14625162       1.46316358       0.00000000
Si      -0.71265492      -3.15341820       1.11550973       0.00000000
Si      -2.35989972      -2.47301748      -0.40800183       0.00000000
Si       1.35788553      -3.32017893      -0.05220306       0.00000000
Si      -0.04054581       2.81719260       2.31109394       0.00000000
Si       2.51185284      -0.60908310      -2.59492878       0.00000000
