10
Lattice="16.28999089631971 0.0 0.0 0.0 16.28999089631971 0.0 0.0 0.0 34.36671206372826" Properties=species:S:1:pos:R:3:initial_magmoms:R:1 pbc="T T T"
Si      -0.87405624      -0.11948878      -2.16300770       0.00000000
Si      -1.98198149       0.48210744       1.18407136       0.00000000
Si       1.14075612      -2.04325700       0.50539715       0.00000000
Si       0.91096938       2.40001059       0.24056712       0.00000000
Si       0.83587248       1.62375951       2.44686560       0.00000000
Si       2.28625263       1.69810707      -1.49323447       0.00000000
Si       1.13863842       0.48111375      -3.20095172       0.00000000
Si      -2.50353908      -1.75463078       1.59963387       0.00000000
Si      -2.75638922       2.27027703      -0.33225756       0.00000000
Si      -0.36175203      -2.77971161       2.25098382       0.00000000
