10
Lattice="16.28999089631971 0.0 0.0 0.0 16.28999089631971 0.0 0.0 0.0 34.36671206372826" Properties=species:S:1:pos:R:3:initial_magmoms:R:1 pbc="T T T"
Si       1.35710361      -1.35685926       1.35734842       0.00000000
Si      -1.35749457       1.35720135       1.35820759       0.00000000
Si       1.35742941       1.35788553      -1.35800139       0.00000000
Si      -1.35948195      -1.35817875      -1.35793265       0.00000000
Si       2.71472850      -0.00188964       2.71342527       0.00000000
Si       0.00039096       2.71440270       2.71517797       0.00000000
Si      -0.00084708      -2.71523349       2.71524670       0.00000000
Si      -2.71591767      -2.71469592       0.00123720       0.00000000
Si      -2.71541268       2.71529865       0.00017183       0.00000000
Si      -2.71738377       0.00304623      -2.71356273       0.00000000
