10
Lattice="16.28999089631971 0.0 0.0 0.0 16.28999089631971 0.0 0.0 0.0 34.36671206372826" Properties=species:S:1:pos:R:3:initial_magmoms:R:1 pbc="T T T"
Si       1.67931981       1.61280515      -0.03852511       0.00000000
Si      -2.12452551       0.65746947      -0.69630434       0.00000000
Si       0.72834219      -1.75430268      -1.39961950       0.00000000
Si      -0.12797424      -0.31258881       2.33566616       0.00000000
Si      -1.48147776      -2.77830837      -1.11757173       0.00000000
Si       3.41741394       0.33008427       1.07045495       0.00000000
Si      -3.46724505      -0.73704105       0.70465546       0.00000000
Si       2.10844728      -0.17174547       2.98870278       0.00000000
Si      -0.74852550      -2.50421283       2.69308016       0.00000000
Si      -2.51814078       2.88077966       0.09718912       0.00000000
