10
Lattice="16.28999089631971 0.0 0.0 0.0 16.28999089631971 0.0 0.0 0.0 34.36671206372826" Properties=species:S:1:pos:R:3:initial_magmoms:R:1 pbc="T T T"
Si      -1.43268921       1.81293269      -0.31469616       0.00000000
Si      -0.04054581      -1.47093813      -1.83827646       0.00000000
Si       2.20644792       0.84781305       0.08828813       0.00000000
Si      -0.98114670      -0.28592208       2.15283515       0.00000000
Si       0.04489524       1.65151671       3.06241942       0.00000000
Si       2.32880211       1.34206063       2.43299274       0.00000000
Si       0.72685980      -3.46685409      -0.87116227       0.00000000
Si      -3.57598080       0.83336382      -0.15200405       0.00000000
Si      -1.07137701       3.15370232       1.64853773       0.00000000
Si      -1.06950366       2.73129284      -2.41611868       0.00000000
