10
Lattice="16.28999089631971 0.0 0.0 0.0 16.28999089631971 0.0 0.0 0.0 34.36671206372826" Properties=species:S:1:pos:R:3:initial_magmoms:R:1 pbc="T T T"
Si      -1.36063854      -1.35519344      -1.35590502       0.00000000
Si       1.35793440      -1.35661946       1.35727968       0.00000000
Si      -1.35726651       1.35878962       1.35679855       0.00000000
Si       1.35596331       1.35893624      -1.35927296       0.00000000
Si      -2.70904329      -0.00404644      -2.71043536       0.00000000
Si       0.00330687      -2.71225146       2.71476557       0.00000000
Si      -2.71401174      -2.71375014      -0.00027493       0.00000000
Si       2.71518462       0.00045123       2.71342527       0.00000000
Si       2.71542897      -2.71414110      -0.00037803       0.00000000
Si      -0.00198738       2.71540453       2.71418134       0.00000000
