10
Lattice="16.28999089631971 0.0 0.0 0.0 16.28999089631971 0.0 0.0 0.0 34.36671206372826" Properties=species:S:1:pos:R:3:initial_magmoms:R:1 pbc="T T T"
Si       1.35713293      -1.35786924       1.35676418       0.00000000
Si      -1.35753472       1.35729909       1.35703912       0.00000000
Si       1.35682342       1.35821133      -1.35717658       0.00000000
Si      -1.35810277      -1.35796698      -1.35672982       0.00000000
Si      -0.00131134      -2.71148679      -2.71088213       0.00000000
Si      -0.00150520      -2.71464705       2.71421570       0.00000000
Si       0.00017104       2.71471221       2.71421570       0.00000000
Si       2.71438315      -0.00029322       2.71476557       0.00000000
Si       2.71523023      -2.71448415       0.00024057       0.00000000
Si       0.00067441       2.71347417      -2.71638081       0.00000000
