10
Lattice="16.28999089631971 0.0 0.0 0.0 16.28999089631971 0.0 0.0 0.0 34.36671206372826" Properties=species:S:1:pos:R:3:initial_magmoms:R:1 pbc="T T T"
Si       1.35748198      -1.35456237       1.35294948       0.00000000
Si      -1.35744570      -1.35606105      -1.35779519       0.00000000
Si       1.35769293       1.35909099      -1.35786392       0.00000000
Si      -1.36076886       1.36410831       1.35841379       0.00000000
Si      -2.69966025       0.00522909       2.70507415       0.00000000
Si       2.69279957       0.00773775       2.71407824       0.00000000
Si       2.71372245      -2.71285515      -0.00068733       0.00000000
Si      -0.00026064      -2.71264338      -2.71507487       0.00000000
Si      -2.71441899       0.00091224      -2.71452500       0.00000000
Si      -2.71531494       2.71456560      -0.00175270       0.00000000
