10
Lattice="16.28999089631971 0.0 0.0 0.0 16.28999089631971 0.0 0.0 0.0 34.36671206372826" Properties=species:S:1:pos:R:3:initial_magmoms:R:1 pbc="T T T"
Si       1.92414941       0.93426408       1.00955710       0.00000000
Si       1.57100501      -1.08546786      -1.47148033       0.00000000
Si      -1.12630689       1.62339624      -1.43298959       0.00000000
Si      -0.70079580      -1.80968868       1.64757546       0.00000000
Si      -2.46874950      -2.38977558      -0.09382118       0.00000000
Si       0.23568742      -2.44776798      -2.83260909       0.00000000
Si       2.74672925      -2.56067397      -0.12798171       0.00000000
Si      -2.48256342       0.27090270      -2.82714478       0.00000000
Si       1.11816745      -3.56537601       1.14028814       0.00000000
Si      -2.38236363       3.10681251       0.09186227       0.00000000
