10
Lattice="16.28999089631971 0.0 0.0 0.0 16.28999089631971 0.0 0.0 0.0 34.36671206372826" Properties=species:S:1:pos:R:3:initial_magmoms:R:1 pbc="T T T"
Si      -2.16647226      -0.70257141       1.12458255       0.00000000
Si       0.70079580       1.80968868      -1.64757546       0.00000000
Si      -1.76795370      -0.58008690      -1.74139664       0.00000000
Si       1.81896325      -1.75568733      -0.50728732       0.00000000
Si       0.25700733       1.07885412       2.65465816       0.00000000
Si      -0.42955101      -2.00477772      -3.11146075       0.00000000
Si       2.62494521       2.74395276      -0.63801837       0.00000000
Si       2.27180081       0.72422082      -3.11905580       0.00000000
Si       3.44752505      -0.75098529      -1.77555717       0.00000000
Si       0.88575246      -3.42459783      -1.75854564       0.00000000
