10
Lattice="16.28999089631971 0.0 0.0 0.0 16.28999089631971 0.0 0.0 0.0 34.36671206372826" Properties=species:S:1:pos:R:3:initial_magmoms:R:1 pbc="T T T"
Si      -1.53153693      -0.70832178      -1.69283645       0.00000000
Si      -1.13814972      -0.70991820       1.99646652       0.00000000
Si       2.16647226       0.70257141      -1.12458255       0.00000000
Si       0.39851856       0.12248451      -2.86597919       0.00000000
Si       0.68922990      -2.92311018       0.73517312       0.00000000
Si      -1.90019592       1.53966564       2.29813769       0.00000000
Si       2.42347959       1.78142553       1.53007561       0.00000000
Si      -2.48396436      -2.27237355       0.53093163       0.00000000
Si      -3.26422278       1.05904548      -1.35487401       0.00000000
Si      -1.40887323       3.83507325       0.75627429       0.00000000
