10
Lattice="16.28999089631971 0.0 0.0 0.0 16.28999089631971 0.0 0.0 0.0 34.36671206372826" Properties=species:S:1:pos:R:3:initial_magmoms:R:1 pbc="T T T"
Si       1.35630540       1.35591444       1.35779519       0.00000000
Si      -1.35692442       1.35721764      -1.35745152       0.00000000
Si       1.35785295      -1.35793440      -1.35745152       0.00000000
Si      -1.35760860      -1.36021500       1.35593938       0.00000000
Si      -0.00306252      -2.71067229       2.71610587       0.00000000
Si       2.71376389      -0.00298107      -2.71466247       0.00000000
Si      -0.00200367       2.71480995       2.71376893       0.00000000
Si       0.00188964       2.71414206      -2.71449064       0.00000000
Si      -2.71425609       2.71456560       0.00075607       0.00000000
Si       2.71540596       2.71415835       0.00017183       0.00000000
