10
Lattice="16.28999089631971 0.0 0.0 0.0 16.28999089631971 0.0 0.0 0.0 34.36671206372826" Properties=species:S:1:pos:R:3:initial_magmoms:R:1 pbc="T T T"
Si      -1.49724648      -1.24188444       1.21847864       0.00000000
Si       1.36875096       1.55978379       1.15725087       0.00000000
Si       1.14577344      -1.48667427      -1.54303053       0.00000000
Si      -0.83833227       0.94830606      -2.09633491       0.00000000
Si       1.58676003       0.75645873      -2.29985469       0.00000000
Si       0.14820642      -2.35287873       2.61207365       0.00000000
Si       2.88961470       1.94924511      -0.64409994       0.00000000
Si      -2.57548158       0.36636210       2.62455565       0.00000000
Si       2.85083145       0.36103527       2.61454462       0.00000000
Si      -3.00122073      -2.47570533      -0.23915675       0.00000000
