10
Lattice="16.28999089631971 0.0 0.0 0.0 16.28999089631971 0.0 0.0 0.0 34.36671206372826" Properties=species:S:1:pos:R:3:initial_magmoms:R:1 pbc="T T T"
Si       1.35355239       1.35392121       1.38599309       0.00000000
Si      -1.36321236      -1.35708732       1.38492772       0.00000000
Si      -1.30811958       1.38640673      -1.48396577       0.00000000
Si       1.21358871      -1.53023373      -1.44613143       0.00000000
Si      -2.71930599       2.69857601       0.02418731       0.00000000
Si       2.69566920      -2.72898225       0.01116231       0.00000000
Si       2.70886012       2.72084444       0.01316589       0.00000000
Si      -2.73064383      -2.72365542       0.02117334       0.00000000
Si       2.70871146      -0.00040667       2.74743115       0.00000000
Si      -0.00819387       2.71488230       2.74657198       0.00000000
