10
Lattice="16.28999089631971 0.0 0.0 0.0 16.28999089631971 0.0 0.0 0.0 34.36671206372826" Properties=species:S:1:pos:R:3:initial_magmoms:R:1 pbc="T T T"
Si       1.31988096      -1.26148131       1.43446736       0.00000000
Si       1.38520929       1.32559875      -1.36446233       0.00000000
Si      -1.32999705      -1.38940668      -1.36741787       0.00000000
Si      -1.48642992       1.32381740       1.61698907       0.00000000
Si      -0.21750408      -2.18905020       3.03255473       0.00000000
Si      -2.68439652       2.67395856       0.00948522       0.00000000
Si      -2.22760863      -0.59386824       3.01482150       0.00000000
Si      -2.68201818      -0.03070665      -2.72335725       0.00000000
Si       0.02985957       2.68199604      -2.72469756       0.00000000
Si      -2.68144803      -2.74299165       0.02079187       0.00000000
