10
Lattice="16.28999089631971 0.0 0.0 0.0 16.28999089631971 0.0 0.0 0.0 34.36671206372826" Properties=species:S:1:pos:R:3:initial_magmoms:R:1 pbc="T T T"
Si      -1.31988096       1.26148131      -1.43446736       0.00000000
Si       1.40943753       1.35451350       1.36868944       0.00000000
Si      -1.53738504      -0.92756889       1.59808737       0.00000000
Si       1.40547906      -1.48514301      -1.42010207       0.00000000
Si      -1.03882959       1.36966320       3.26875728       0.00000000
Si       0.23154673      -1.04032827       3.56307396       0.00000000
Si      -2.55073707      -2.71749780       0.11945876       0.00000000
Si       2.49180704      -0.13431105       2.80796815       0.00000000
Si       0.06532833       2.58708006      -2.79892969       0.00000000
Si       2.82057182       2.56640805      -0.07646598       0.00000000
