10
Lattice="16.28999089631971 0.0 0.0 0.0 16.28999089631971 0.0 0.0 0.0 34.36671206372826" Properties=species:S:1:pos:R:3:initial_magmoms:R:1 pbc="T T T"
Si      -0.93321079      -1.66891050      -1.25125832       0.00000000
Si       1.62856180       1.00470204      -1.26826985       0.00000000
Si       1.43599771      -1.66819374       1.19331601       0.00000000
Si      -1.81896325       1.75568733       0.50728732       0.00000000
Si      -2.24851426      -0.24909039      -2.60417343       0.00000000
Si       0.45283756       2.47990815      -2.61176848       0.00000000
Si      -2.23468405      -2.91276929       0.31270289       0.00000000
Si       2.60853562       2.78674659      -0.15660919       0.00000000
Si      -1.11816745       3.56537601      -1.14028814       0.00000000
Si      -0.17278803      -3.63988647       1.54069493       0.00000000
