10
Lattice="16.28999089631971 0.0 0.0 0.0 16.28999089631971 0.0 0.0 0.0 34.36671206372826" Properties=species:S:1:pos:R:3:initial_magmoms:R:1 pbc="T T T"
Si       1.07126298       2.02607594       0.57227481       0.00000000
Si      -1.30896666      -0.50182974       1.91824784       0.00000000
Si      -1.73809413       1.28272088      -1.10898005       0.00000000
Si       0.81264294      -2.23348932      -0.71352207       0.00000000
Si       0.71123769      -0.94418469      -3.10286907       0.00000000
Si      -0.75860901       2.97923642       1.73321736       0.00000000
Si      -3.41741394      -0.33008427      -1.07045495       0.00000000
Si      -3.54538818      -0.64267308       1.26521121       0.00000000
Si      -1.23414669      -3.48754239      -0.97336893       0.00000000
Si      -1.34374581       1.36413830       3.37151380       0.00000000
