10
Lattice="16.28999089631971 0.0 0.0 0.0 16.28999089631971 0.0 0.0 0.0 34.36671206372826" Properties=species:S:1:pos:R:3:initial_magmoms:R:1 pbc="T T T"
Si       0.29903553       0.22858128      -2.29088631       0.00000000
Si       2.14992555       0.30255417       0.82895992       0.00000000
Si      -0.70620408      -2.17723995       0.45848656       0.00000000
Si      -1.44676377       1.79232354       0.72451943       0.00000000
Si       0.96676819       2.48004891      -1.91470807       0.00000000
Si      -1.90503405      -0.42036345      -2.87244013       0.00000000
Si      -0.79423524      -1.98410571       2.80188523       0.00000000
Si       1.77274526       0.55680849       3.15318196       0.00000000
Si       2.90226617       2.22738303      -0.45370959       0.00000000
Si      -1.01239092       3.46780121      -0.97106636       0.00000000
