10
Lattice="16.28999089631971 0.0 0.0 0.0 16.28999089631971 0.0 0.0 0.0 34.36671206372826" Properties=species:S:1:pos:R:3:initial_magmoms:R:1 pbc="T T T"
Si      -0.70852378      -0.84797595      -2.04705435       0.00000000
Si       0.14119520       2.30321052      -0.33535056       0.00000000
Si      -1.79733827      -0.10236636       1.53430272       0.00000000
Si       2.16040586      -0.87671151       0.50694365       0.00000000
Si      -0.65071545      -1.58016258       2.92216879       0.00000000
Si       1.32624383      -2.60340264       1.98990247       0.00000000
Si      -3.44398034      -0.92017323       0.13382405       0.00000000
Si       1.92242525       2.87396325       1.08942538       0.00000000
Si       0.66697124       0.28924524      -3.55389805       0.00000000
Si      -2.95686047      -0.18686259      -2.10317522       0.00000000
