10
Lattice="16.28999089631971 0.0 0.0 0.0 16.28999089631971 0.0 0.0 0.0 34.36671206372826" Properties=species:S:1:pos:R:3:initial_magmoms:R:1 pbc="T T T"
Si       1.45442007      -1.10793177       1.53865355       0.00000000
Si       1.79952372       1.06267815      -1.18141966       0.00000000
Si      -0.85871106      -1.92226887      -1.35414685       0.00000000
Si      -1.26206775       1.60213779       1.50562712       0.00000000
Si      -2.63834958      -2.55536343       0.11617330       0.00000000
Si       2.80837971      -2.43862929       0.09978380       0.00000000
Si       0.10236636      -2.45697183       2.90634635       0.00000000
Si       1.00870938      -3.54318903      -1.03504450       0.00000000
Si       3.54506238      -0.72096282      -1.39260323       0.00000000
Si      -2.61645745       0.25471044       2.90569338       0.00000000
