10
Lattice="16.28999089631971 0.0 0.0 0.0 16.28999089631971 0.0 0.0 0.0 34.36671206372826" Properties=species:S:1:pos:R:3:initial_magmoms:R:1 pbc="T T T"
Si      -1.33669291      -1.35527913      -1.36424926       0.00000000
Si       1.35614902      -1.35526284       1.35920422       0.00000000
Si      -1.35984450       1.35653346       1.35892929       0.00000000
Si       1.35438970       1.34742735      -1.40006627       0.00000000
Si      -2.57188216       0.01348812      -2.83320707       0.00000000
Si      -0.00067441      -2.71347417       2.71638081       0.00000000
Si       2.71882381      -2.71168227       0.00065297       0.00000000
Si      -2.71712380      -2.71360449      -0.00285244       0.00000000
Si       2.71452325       0.00133578       2.71648391       0.00000000
Si      -2.71575544       0.00158013       2.71614024       0.00000000
