10
Lattice="16.28999089631971 0.0 0.0 0.0 16.28999089631971 0.0 0.0 0.0 34.36671206372826" Properties=species:S:1:pos:R:3:initial_magmoms:R:1 pbc="T T T"
Si       1.35569892       1.35791811       1.35710785       0.00000000
Si      -1.35787691      -1.35822436       1.35659235       0.00000000
Si       1.35734096      -1.35825368      -1.35762335       0.00000000
Si      -1.35828416       1.35812988      -1.35727968       0.00000000
Si      -0.00054155       2.71621089       2.71074466       0.00000000
Si      -0.00089865       2.71459818      -2.71383767       0.00000000
Si       2.71433705       2.71469592      -0.00034367       0.00000000
Si      -2.71330265       0.00346977       2.71614024       0.00000000
Si       2.71490720       0.00133578      -2.71510924       0.00000000
Si      -2.71546922       2.71471221       0.00000000       0.00000000
