10
Lattice="16.28999089631971 0.0 0.0 0.0 16.28999089631971 0.0 0.0 0.0 34.36671206372826" Properties=species:S:1:pos:R:3:initial_magmoms:R:1 pbc="T T T"
Si       0.92736689      -1.98307944       0.92494621       0.00000000
Si      -1.18795819       1.27871613       1.70974488       0.00000000
Si      -2.09653670      -1.43827668      -0.00089354       0.00000000
Si       1.91941160       1.52837667       0.74438340       0.00000000
Si      -1.16388466       1.81337022      -1.77366700       0.00000000
Si      -2.35706267      -1.09266804       2.36724918       0.00000000
Si      -0.10920001      -1.75555701       3.06685273       0.00000000
Si      -2.33285573       2.93405706       0.32136330       0.00000000
Si       1.09637564       2.71938744      -2.52877282       0.00000000
Si       0.29910883      -3.84396759      -0.50838706       0.00000000
