10
Lattice="16.28999089631971 0.0 0.0 0.0 16.28999089631971 0.0 0.0 0.0 34.36671206372826" Properties=species:S:1:pos:R:3:initial_magmoms:R:1 pbc="T T T"
Si      -1.32572907       1.35029439       1.35824195       0.00000000
Si      -1.36203948      -1.34491869      -1.36380936       0.00000000
Si       1.35198855       1.36706638      -1.36580263       0.00000000
Si       1.23364170      -1.39326741       1.52993814       0.00000000
Si       2.70086571      -2.71034649       0.03536337       0.00000000
Si      -0.00619020      -2.70352098      -2.72304795       0.00000000
Si       2.69602758       2.73146877      -0.01818000       0.00000000
Si      -2.71177349       2.71978396      -0.00154650       0.00000000
Si       2.70790299       0.01399311      -2.72373529       0.00000000
Si      -2.74082182      -2.70125667       0.01460586       0.00000000
