10
Lattice="16.28999089631971 0.0 0.0 0.0 16.28999089631971 0.0 0.0 0.0 34.36671206372826" Properties=species:S:1:pos:R:3:initial_magmoms:R:1 pbc="T T T"
Si       2.26026031       0.90601722      -0.75510582       0.00000000
Si      -1.76893177       0.11275938      -1.96498659       0.00000000
Si      -1.16897107       1.12068684       2.09503030       0.00000000
Si      -1.27037632       2.40999147      -0.29431669       0.00000000
Si       1.16388466      -1.81337022       1.77366700       0.00000000
Si       1.17789080       2.39484177      -2.19438453       0.00000000
Si      -0.02407352      -0.53465409       3.48341188       0.00000000
Si      -3.21576070      -0.13336623       1.83518345       0.00000000
Si      -0.23154673       1.04032827      -3.56307396       0.00000000
Si      -0.93265204      -3.25164690       1.77277347       0.00000000
