10
Lattice="16.28999089631971 0.0 0.0 0.0 16.28999089631971 0.0 0.0 0.0 34.69518985606464" Properties=species:S:1:pos:R:3:initial_magmoms:R:1 pbc="T T T"
Si       1.43806654      -1.00341513      -1.63393618       0.00000000
Si       1.11899431       2.14335416       0.02341927       0.00000000
Si       0.23558435      -1.34008056       2.01006695       0.00000000
Si      -2.20881553       0.68139441      -0.76395381       0.00000000
Si       3.47972482       0.00506619      -0.96206346       0.00000000
Si      -1.68294175       2.56054921      -2.12018954       0.00000000
Si      -1.48068511      -3.05023734       1.76834542       0.00000000
Si       0.56063664      -0.53910126      -3.82823469       0.00000000
Si       2.88738784       2.16418093      -1.50958855       0.00000000
Si      -0.20802982       0.20272905       3.93329179       0.00000000
