10
Lattice="16.28999089631971 0.0 0.0 0.0 16.28999089631971 0.0 0.0 0.0 34.69518985606464" Properties=species:S:1:pos:R:3:initial_magmoms:R:1 pbc="T T T"
Si      -1.35920502       1.35443694       1.36345233       0.00000000
Si       1.35586557      -1.36285849       1.36268904       0.00000000
Si      -1.35254241      -1.36266080      -1.38670853       0.00000000
Si       1.35529542       1.35124410      -1.39547948       0.00000000
Si      -2.71152426       2.71352793       0.00232458       0.00000000
Si       2.72008791       2.71072605       0.00128372       0.00000000
Si       2.71705797      -2.71442129       0.00676557       0.00000000
Si      -2.71545829      -2.71696253      -0.00371239       0.00000000
Si      -0.00043983       2.71295778       2.72038197       0.00000000
Si      -2.71492724      -0.00219101       2.72010440       0.00000000
