10
Lattice="16.28999089631971 0.0 0.0 0.0 16.28999089631971 0.0 0.0 0.0 34.69518985606464" Properties=species:S:1:pos:R:3:initial_magmoms:R:1 pbc="T T T"
Si       1.34641737      -1.19166141       1.53983931       0.00000000
Si       1.87041780       0.93453286      -1.23349245       0.00000000
Si      -0.97917561      -1.72937802      -1.43323277       0.00000000
Si      -1.35925389       1.52304169       1.49397918       0.00000000
Si       2.46909159      -2.72933967       0.18132063       0.00000000
Si      -2.73196332      -2.58872439       0.01064102       0.00000000
Si       0.00250866      -2.54262369       2.89622423       0.00000000
Si       3.53989845      -1.04927914      -1.13465963       0.00000000
Si       2.72043000       2.80698691       0.09049551       0.00000000
Si       0.68049846      -3.70297668      -1.14026638       0.00000000
