10
Lattice="16.28999089631971 0.0 0.0 0.0 16.28999089631971 0.0 0.0 0.0 34.69518985606464" Properties=species:S:1:pos:R:3:initial_magmoms:R:1 pbc="T T T"
Si      -1.35588186      -1.35446242       1.35738067       0.00000000
Si       1.36119240      -1.35156280      -1.35592347       0.00000000
Si       1.35964485       1.35996865       1.35751945       0.00000000
Si      -1.35586557       1.36285849      -1.36268904       0.00000000
Si       2.70510111      -0.00060052      -2.71230839       0.00000000
Si       0.00180819      -2.71211989       2.71441439       0.00000000
Si       2.71518462      -2.71151716       0.00072860       0.00000000
Si      -2.71366965       0.00319411       2.71514299       0.00000000
Si       2.71629234       0.00301345       2.71472665       0.00000000
Si       2.71547784       2.71566643       0.00124903       0.00000000
