10
Lattice="16.28999089631971 0.0 0.0 0.0 16.28999089631971 0.0 0.0 0.0 34.69518985606464" Properties=species:S:1:pos:R:3:initial_magmoms:R:1 pbc="T T T"
Si       1.35610992       1.35570267       1.35710311       0.00000000
Si      -1.35772263       1.35755973      -1.35745006       0.00000000
Si       1.35822762      -1.35828789      -1.35762354       0.00000000
Si      -1.36099692      -1.36095945       1.35675616       0.00000000
Si      -0.00161271      -2.70961668       2.71607976       0.00000000
Si       2.71406061      -0.00259011      -2.71389396       0.00000000
Si      -2.71314837       2.71490769      -0.00027756       0.00000000
Si      -0.00136836       2.71352304      -2.71555933       0.00000000
Si      -2.71187775       0.00109143       2.71750226       0.00000000
Si       2.71531494       2.71461447       0.00003470       0.00000000
