10
Lattice="16.28999089631971 0.0 0.0 0.0 16.28999089631971 0.0 0.0 0.0 34.69518985606464" Properties=species:S:1:pos:R:3:initial_magmoms:R:1 pbc="T T T"
Si      -1.32589197      -1.76086918      -0.74702255       0.00000000
Si      -0.84475053       1.87910037      -1.13949476       0.00000000
Si       2.04274971      -0.44136126      -1.10889358       0.00000000
Si      -0.26399574       0.28820268       2.34171845       0.00000000
Si       0.89748126       1.85870529      -2.97931231       0.00000000
Si      -2.86047513       1.01838564      -2.01357116       0.00000000
Si      -3.09428550      -1.78169594       0.78598527       0.00000000
Si       2.97862650       1.69038072      -1.56569071       0.00000000
Si      -2.24976303      -1.10993055      -2.86336092       0.00000000
Si      -2.45584782      -0.77784913       2.83088621       0.00000000
