10
Lattice="16.28999089631971 0.0 0.0 0.0 16.28999089631971 0.0 0.0 0.0 34.69518985606464" Properties=species:S:1:pos:R:3:initial_magmoms:R:1 pbc="T T T"
Si      -1.17861408       1.45549521       1.48244996       0.00000000
Si       1.71426186       0.93921624      -1.40066437       0.00000000
Si       1.50921963      -1.25928216       1.45274392       0.00000000
Si      -2.01145662      -0.71037432      -1.44680900       0.00000000
Si      -2.69123832      -2.55627567       0.04001398       0.00000000
Si      -1.49938047       1.96959132      -2.76716988       0.00000000
Si       0.60041682       1.17789732      -3.52550307       0.00000000
Si      -2.72741841       2.60550405       0.18512323       0.00000000
Si      -2.54847276       0.10759545       2.83900142       0.00000000
Si       2.74652658       2.67296094      -0.02975114       0.00000000
