10
Lattice="16.28999089631971 0.0 0.0 0.0 16.28999089631971 0.0 0.0 0.0 34.69518985606464" Properties=species:S:1:pos:R:3:initial_magmoms:R:1 pbc="T T T"
Si      -1.35542574       1.35734796       1.35717250       0.00000000
Si       1.35635427       1.35596331      -1.35810927       0.00000000
Si       1.35772263      -1.35755973       1.35745006       0.00000000
Si      -1.35876519      -1.35852084      -1.35692963       0.00000000
Si       2.71383255      -0.00185706       2.71455317       0.00000000
Si      -2.71388631       2.71458189      -0.00031226       0.00000000
Si      -2.71108443       0.00057015      -2.71805739       0.00000000
Si      -2.71330801      -0.00120546       2.71597567       0.00000000
Si       0.00032580       2.71754667       2.71202042       0.00000000
Si      -2.71448741      -2.71514878      -0.00027756       0.00000000
