10
Lattice="16.28999089631971 0.0 0.0 0.0 16.28999089631971 0.0 0.0 0.0 34.69518985606464" Properties=species:S:1:pos:R:3:initial_magmoms:R:1 pbc="T T T"
Si      -0.99484659      -1.54518795      -1.60132269       0.00000000
Si       2.47204008       0.47045520       0.38792713       0.00000000
Si      -1.91256003       1.89330525      -0.20626302       0.00000000
Si      -0.17754471      -1.47781251       2.26944833       0.00000000
Si       2.19607119       1.66895937      -1.72684995       0.00000000
Si      -2.86446618      -2.39956587      -0.24616251       0.00000000
Si       2.38117446      -2.94545354      -0.33508633       0.00000000
Si      -2.42198091      -0.22178835      -2.98403086       0.00000000
Si       0.31086207       2.49727329      -2.99065765       0.00000000
Si      -2.29552164       2.71492398       1.94442361       0.00000000
