10
Lattice="16.28999089631971 0.0 0.0 0.0 16.28999089631971 0.0 0.0 0.0 34.69518985606464" Properties=species:S:1:pos:R:3:initial_magmoms:R:1 pbc="T T T"
Si       1.35550719       1.35640314      -1.35713780       0.00000000
Si       1.35799956      -1.35765747       1.35606225       0.00000000
Si      -1.35791811       1.35782037       1.35699902       0.00000000
Si      -1.35791811      -1.35772263      -1.35751945       0.00000000
Si      -0.00027693      -2.71197549       2.71195103       0.00000000
Si       2.71484253      -0.00285075       2.71111835       0.00000000
Si      -0.00027693      -2.71454931      -2.71476134       0.00000000
Si      -2.71448904      -2.71494027      -0.00038165       0.00000000
Si       2.71487511      -2.71456560      -0.00041634       0.00000000
Si       2.71484253       2.71515204      -0.00017348       0.00000000
