10
Lattice="16.28999089631971 0.0 0.0 0.0 16.28999089631971 0.0 0.0 0.0 34.69518985606464" Properties=species:S:1:pos:R:3:initial_magmoms:R:1 pbc="T T T"
Si       1.28275605       1.01709873       1.69395890       0.00000000
Si       1.46453616      -1.20529710      -1.40727238       0.00000000
Si      -1.23639471       1.51795107      -1.39901492       0.00000000
Si      -2.02110030      -0.74723859       1.27008752       0.00000000
Si      -0.67598613       1.95382260       2.64943026       0.00000000
Si       2.31041070      -2.95189461      -0.03937906       0.00000000
Si       0.10402794      -2.53343709      -2.77454119       0.00000000
Si      -2.67770133      -2.68796403       0.09763232       0.00000000
Si      -2.59683777       0.17451477      -2.76815727       0.00000000
Si       2.68275123       2.71280628       0.22413105       0.00000000
