10
Lattice="16.28999089631971 0.0 0.0 0.0 16.28999089631971 0.0 0.0 0.0 34.69518985606464" Properties=species:S:1:pos:R:3:initial_magmoms:R:1 pbc="T T T"
Si      -0.71412102       1.79304030      -1.39360247       0.00000000
Si      -1.38461742      -0.94183893       1.71664956       0.00000000
Si       2.06622360       0.56407383       1.12235532       0.00000000
Si       0.28119798      -1.73262069      -1.71873128       0.00000000
Si       0.35818452      -3.69701550      -0.41328933       0.00000000
Si      -3.12523650       0.90305244       1.84970569       0.00000000
Si      -1.43710380      -3.28570929       1.07135337       0.00000000
Si      -1.60915878       2.84284935       1.85744272       0.00000000
Si       1.19148318       2.44174068      -2.64661995       0.00000000
Si       3.06429561      -1.54841337       1.62966867       0.00000000
