10
Lattice="16.28999089631971 0.0 0.0 0.0 16.28999089631971 0.0 0.0 0.0 34.69518985606464" Properties=species:S:1:pos:R:3:initial_magmoms:R:1 pbc="T T T"
Si       0.59233698      -2.15911474       0.54752510       0.00000000
Si       1.32589197       1.76086918       0.74702255       0.00000000
Si      -1.76839353      -0.02082676       1.53300782       0.00000000
Si      -0.92387106       0.65093863      -2.11633837       0.00000000
Si      -1.53458316       2.77925482      -1.26654861       0.00000000
Si      -2.94901454       1.69732189       0.41627312       0.00000000
Si      -1.44932130      -3.16759606      -0.12434763       0.00000000
Si       3.36864168       1.31950792      -0.36187103       0.00000000
Si       0.48114144       3.63996955      -0.39247221       0.00000000
Si       2.17425888      -2.97809449      -0.99918733       0.00000000
