10
Lattice="16.28999089631971 0.0 0.0 0.0 16.28999089631971 0.0 0.0 0.0 34.69518985606464" Properties=species:S:1:pos:R:3:initial_magmoms:R:1 pbc="T T T"
Si      -1.06621308      -1.32468651       1.59227560       0.00000000
Si       0.16182486      -1.96059924      -1.36001751       0.00000000
Si      -1.72895544       0.96053985      -1.45955806       0.00000000
Si       1.55905074       1.39066101       1.47949883       0.00000000
Si      -2.04279858      -2.91242394       0.11893518       0.00000000
Si      -2.25567630       0.24224859       2.87729248       0.00000000
Si      -2.40717330       2.88658800      -0.07910508       0.00000000
Si       0.48259125      -2.47469535       2.88960234       0.00000000
Si      -0.78869664       1.70035020      -3.51219603       0.00000000
Si       2.50789437       3.16469088       0.21073874       0.00000000
