10
Lattice="16.28999089631971 0.0 0.0 0.0 16.28999089631971 0.0 0.0 0.0 34.69518985606464" Properties=species:S:1:pos:R:3:initial_magmoms:R:1 pbc="T T T"
Si       0.95548995       1.53031518       1.40109663       0.00000000
Si       1.95874218      -0.93672387      -0.95547137       0.00000000
Si      -1.16887266       1.82974167      -1.08082516       0.00000000
Si      -1.42182378      -1.75107726       0.93139289       0.00000000
Si      -1.34511417      -2.70106119      -1.37934274       0.00000000
Si       0.67598613      -1.95382260      -2.64943026       0.00000000
Si      -0.98793963       2.39112765       2.50017147       0.00000000
Si      -2.28957579       0.53836821      -2.74165013       0.00000000
Si       2.52925056      -2.47226814       0.91831280       0.00000000
Si      -2.57196294       2.69130348       0.77450116       0.00000000
