10
Lattice="16.28999089631971 0.0 0.0 0.0 16.28999089631971 0.0 0.0 0.0 34.69518985606464" Properties=species:S:1:pos:R:3:initial_magmoms:R:1 pbc="T T T"
Si      -1.35454571      -1.35646143       1.35762354       0.00000000
Si      -1.35332396       1.36280939      -1.35772762       0.00000000
Si       1.36017043       1.35865218       1.35772762       0.00000000
Si       1.35963938      -1.35611934      -1.36608917       0.00000000
Si      -2.71285478       2.71446562       0.00003470       0.00000000
Si      -2.71217060       0.00069994       2.71521238       0.00000000
Si       0.00196710      -2.71379310       2.71455317       0.00000000
Si      -2.71251269      -2.71638321       0.00000000       0.00000000
Si       2.71589265       2.71528012       0.00107555       0.00000000
Si       0.00210702       2.71633897       2.71531647       0.00000000
