10
Lattice="16.28999089631971 0.0 0.0 0.0 16.28999089631971 0.0 0.0 0.0 34.69518985606464" Properties=species:S:1:pos:R:3:initial_magmoms:R:1 pbc="T T T"
Si      -1.22825690       0.40894416      -1.94640124       0.00000000
Si       0.76417856       2.18704653       0.39202117       0.00000000
Si       2.00710719      -1.25447824      -0.35274619       0.00000000
Si      -1.71531161      -0.79387686       1.56589888       0.00000000
Si       1.66620636      -2.44606242       1.68858114       0.00000000
Si      -0.45669308       2.50874145       2.40795161       0.00000000
Si      -0.86754743       0.35908047       3.38177674       0.00000000
Si       0.18804850      -0.54017640      -3.51438183       0.00000000
Si       1.36866951      -2.25832505      -2.39764713       0.00000000
Si       1.27229787      -0.66899772       3.26572127       0.00000000
