10
Lattice="16.28999089631971 0.0 0.0 0.0 16.28999089631971 0.0 0.0 0.0 34.69518985606464" Properties=species:S:1:pos:R:3:initial_magmoms:R:1 pbc="T T T"
Si      -1.75278771      -0.85934637       1.44387379       0.00000000
Si       0.97917561       1.72937802       1.43323277       0.00000000
Si       0.31231188       0.04237029      -2.46405376       0.00000000
Si       1.65967407      -1.97359866       0.29296639       0.00000000
Si       2.49184872       1.16537098      -2.36715004       0.00000000
Si      -0.39744342      -2.17737027       2.95336519       0.00000000
Si       0.50784075      -2.40256323      -2.88733531       0.00000000
Si       2.32559298       0.53771661       2.97307207       0.00000000
Si       2.84959341       2.66391089       0.19974032       0.00000000
Si       3.44826720      -0.99996165       1.61455340       0.00000000
