10
Lattice="16.28999089631971 0.0 0.0 0.0 16.28999089631971 0.0 0.0 0.0 34.69518985606464" Properties=species:S:1:pos:R:3:initial_magmoms:R:1 pbc="T T T"
Si      -1.35664749       1.35695519      -1.35720720       0.00000000
Si       1.35785295       1.35599734       1.35717250       0.00000000
Si       1.35795069      -1.35706862      -1.35713780       0.00000000
Si      -1.35718506      -1.35768764       1.35797049       0.00000000
Si      -0.00081450       2.71265298      -2.71347762       0.00000000
Si       0.00166158      -2.71153325       2.71590628       0.00000000
Si       2.71427238      -0.00023155      -2.71326945       0.00000000
Si      -0.00110772      -2.71453061      -2.71399805       0.00000000
Si      -2.71448415      -2.71513334      -0.00031226       0.00000000
Si      -2.71487511       2.71524309       0.00041634       0.00000000
