10
Lattice="16.28999089631971 0.0 0.0 0.0 16.28999089631971 0.0 0.0 0.0 34.69518985606464" Properties=species:S:1:pos:R:3:initial_magmoms:R:1 pbc="T T T"
Si       1.35883035      -1.35154178       1.35890726       0.00000000
Si      -1.35785295      -1.35599734      -1.35717250       0.00000000
Si       1.35821133       1.35971815      -1.35717250       0.00000000
Si      -1.36024758       1.36556627       1.36317477       0.00000000
Si       2.69133606       0.00315049       2.70650388       0.00000000
Si       0.00009774      -2.71306596      -2.71431030       0.00000000
Si       2.71241532      -2.71559091       0.00024287       0.00000000
Si      -2.71503801      -2.71368498       0.00079799       0.00000000
Si      -2.71450044       0.00095785      -2.71437970       0.00000000
Si       2.71458189       0.00231807      -2.71431030       0.00000000
