10
Lattice="16.28999089631971 0.0 0.0 0.0 16.28999089631971 0.0 0.0 0.0 34.69518985606464" Properties=species:S:1:pos:R:3:initial_magmoms:R:1 pbc="T T T"
Si       0.89598258      -1.13332366       1.80432436       0.00000000
Si       0.26702568      -1.02910024      -2.06394861       0.00000000
Si      -2.16873657      -0.11230587       0.86370254       0.00000000
Si       0.97888239       2.08643460      -0.42328155       0.00000000
Si      -0.95167809       0.57119093      -3.26544370       0.00000000
Si       1.21730283      -3.26355067       0.90027129       0.00000000
Si      -2.62345563      -2.44934389       0.53836556       0.00000000
Si      -3.32386047       1.59400419      -0.15928571       0.00000000
Si       2.55770919      -1.12208356      -2.41707645       0.00000000
Si      -1.97762229       0.70929592       3.04047997       0.00000000
