10
Lattice="16.28999089631971 0.0 0.0 0.0 16.28999089631971 0.0 0.0 0.0 34.69518985606464" Properties=species:S:1:pos:R:3:initial_magmoms:R:1 pbc="T T T"
Si       1.24514244      -0.01235759      -2.00267687       0.00000000
Si       0.06858090       2.42540833       0.31468555       0.00000000
Si      -2.17953684      -1.12300069      -0.09690372       0.00000000
Si       0.35774469       1.49853991       2.56689036       0.00000000
Si       2.02722534      -0.48527210       2.66572317       0.00000000
Si      -2.49184872      -1.16537098       2.36715004       0.00000000
Si       3.49220133      -0.51585641      -1.20107875       0.00000000
Si       3.13207830      -1.90330798       0.83778522       0.00000000
Si      -3.50968050      -0.08923336      -1.86986361       0.00000000
Si      -2.16604872       3.33259843      -0.66462143       0.00000000
