10
Lattice="16.28999089631971 0.0 0.0 0.0 16.28999089631971 0.0 0.0 0.0 34.69518985606464" Properties=species:S:1:pos:R:3:initial_magmoms:R:1 pbc="T T T"
Si      -0.56941695       0.80573598      -2.10655121       0.00000000
Si       0.93732660       1.73749140       1.29015284       0.00000000
Si      -1.75588281      -1.00913292       1.26112336       0.00000000
Si       1.44712215      -1.99096380      -0.18707345       0.00000000
Si      -0.40905819      -2.29384377       2.70611984       0.00000000
Si       2.32399656       0.42640704       2.68463657       0.00000000
Si      -0.25775667      -0.95087988      -3.49852300       0.00000000
Si       3.43306863      -1.09643103       1.17264711       0.00000000
Si      -2.60589501      -2.88158697      -0.06286460       0.00000000
Si       1.31831712      -2.53377918      -2.68932664       0.00000000
