10
Lattice="16.28999089631971 0.0 0.0 0.0 16.28999089631971 0.0 0.0 0.0 34.69518985606464" Properties=species:S:1:pos:R:3:initial_magmoms:R:1 pbc="T T T"
Si       1.35645201      -1.35689184      -1.35790110       0.00000000
Si       1.35501849       1.35733167       1.35925421       0.00000000
Si      -1.35799956       1.35785295      -1.35748476       0.00000000
Si      -1.36008468      -1.36008468       1.35727659       0.00000000
Si      -0.00187335       2.71415835      -2.71455317       0.00000000
Si       2.71459818      -0.00079821      -2.71476134       0.00000000
Si      -2.71544526      -2.71454931       0.00027756       0.00000000
Si      -0.00265527      -2.71568961      -2.71431030       0.00000000
Si       2.71446786      -2.71572219      -0.00072860       0.00000000
Si       0.00702099      -2.72003904       2.71091017       0.00000000
