10
Lattice="16.28999089631971 0.0 0.0 0.0 16.28999089631971 0.0 0.0 0.0 34.69518985606464" Properties=species:S:1:pos:R:3:initial_magmoms:R:1 pbc="T T T"
Si       1.35040842      -1.36049193      -1.36046854       0.00000000
Si       1.34128602       1.33685514       1.39741894       0.00000000
Si      -1.36748034       1.35195597      -1.36196044       0.00000000
Si      -1.36736631      -1.38310245       1.35661738       0.00000000
Si       2.71443528       2.71078632       0.00034695       0.00000000
Si       2.71093293      -0.00146610      -2.71954928       0.00000000
Si      -0.00467523       2.71270854      -2.71930642       0.00000000
Si       2.71450044      -2.71979469      -0.00020817       0.00000000
Si      -2.71883358       2.71622718      -0.00398995       0.00000000
Si      -0.00461007      -2.71782360      -2.71972276       0.00000000
