10
Lattice="16.28999089631971 0.0 0.0 0.0 16.28999089631971 0.0 0.0 0.0 34.69518985606464" Properties=species:S:1:pos:R:3:initial_magmoms:R:1 pbc="T T T"
Si       0.85372632       1.02773610      -1.92343301       0.00000000
Si      -1.20542742      -1.87541883      -0.79129364       0.00000000
Si      -1.81438020       1.34128602       0.71121709       0.00000000
Si       1.95931233      -0.96609474       1.07093702       0.00000000
Si       2.01614814       0.90469773       2.43414649       0.00000000
Si       0.53963883      -2.32342641       2.32218505       0.00000000
Si       0.10502163       2.57233761       2.27406279       0.00000000
Si      -2.93303079      -0.27525213       2.13000829       0.00000000
Si      -2.13716655      -1.12091490      -2.77762906       0.00000000
Si      -0.17459622      -0.17651844      -3.69625412       0.00000000
