10
Lattice="16.28999089631971 0.0 0.0 0.0 16.28999089631971 0.0 0.0 0.0 34.69518985606464" Properties=species:S:1:pos:R:3:initial_magmoms:R:1 pbc="T T T"
Si      -1.12267422       1.53767826       1.35851867       0.00000000
Si       1.07080686       1.68006054      -1.31598027       0.00000000
Si       1.59221718      -1.17568188       1.34448099       0.00000000
Si      -1.78859313      -0.97363701      -1.32158701       0.00000000
Si      -2.46658293       0.18671598       2.71490359       0.00000000
Si      -2.46909159       2.72933967      -0.18132063       0.00000000
Si       0.24997005      -2.53136826       2.70959523       0.00000000
Si       2.17565982       0.26202465      -3.14391822       0.00000000
Si       2.97592236      -2.46901014      -0.07314444       0.00000000
Si      -2.73743676      -2.74766688      -0.05282693       0.00000000
