10
Lattice="16.28999089631971 0.0 0.0 0.0 16.28999089631971 0.0 0.0 0.0 34.69518985606464" Properties=species:S:1:pos:R:3:initial_magmoms:R:1 pbc="T T T"
Si       1.68342489      -0.38035521       1.65690441       0.00000000
Si      -0.97769322      -1.72403586      -1.39839041       0.00000000
Si      -2.11268268       0.76300731       1.04463806       0.00000000
Si       1.58086305       1.07184942      -1.61821925       0.00000000
Si       1.48439367      -2.70418887       1.54518584       0.00000000
Si      -2.20125141      -0.21291030      -3.00047639       0.00000000
Si      -2.82537018       2.52388856      -0.35864438       0.00000000
Si       3.67056054       0.78573186       0.89714872       0.00000000
Si       2.86340733       2.61781019      -0.31551823       0.00000000
Si       0.50015187       2.52787147      -3.04263107       0.00000000
