10
Lattice="16.28999089631971 0.0 0.0 0.0 16.28999089631971 0.0 0.0 0.0 34.69518985606464" Properties=species:S:1:pos:R:3:initial_magmoms:R:1 pbc="T T T"
Si      -0.38428110      -0.60896907       2.24876999       0.00000000
Si      -1.66649958       0.90487692      -1.43412647       0.00000000
Si       0.71829126       2.23614459       0.39712137       0.00000000
Si       1.56346533      -1.72753821      -0.78844863       0.00000000
Si      -0.09273897      -3.09770640      -1.91691031       0.00000000
Si       3.00897477       2.14316127       0.04399353       0.00000000
Si       1.66856841       0.00169416       3.36134126       0.00000000
Si      -2.17219005       0.81590094       2.99943553       0.00000000
Si      -0.65889792      -3.01477401       2.32620969       0.00000000
Si      -0.39824163       2.62058859      -2.81749386       0.00000000
