10
Lattice="16.28999089631971 0.0 0.0 0.0 16.28999089631971 0.0 0.0 0.0 34.69518985606464" Properties=species:S:1:pos:R:3:initial_magmoms:R:1 pbc="T T T"
Si      -0.32132025       2.13022701       0.90405307       0.00000000
Si      -2.05284951      -0.61066323      -1.11257127       0.00000000
Si       0.23180670      -1.38013767       1.97110423       0.00000000
Si       1.93249899       0.63599418      -1.37906518       0.00000000
Si      -1.21730283       3.26355067      -0.90027129       0.00000000
Si       2.88561060      -1.52858844      -1.71106363       0.00000000
Si      -1.66856841      -0.00169416      -3.36134126       0.00000000
Si       0.97195914      -3.45437595       1.16922855       0.00000000
Si       1.76256171       2.92455999       1.65305324       0.00000000
Si      -0.95027715       2.23445043      -2.96421990       0.00000000
