10
Lattice="16.28999089631971 0.0 0.0 0.0 16.28999089631971 0.0 0.0 0.0 34.69518985606464" Properties=species:S:1:pos:R:3:initial_magmoms:R:1 pbc="T T T"
Si       1.49573381      -1.20401508      -1.31977106       0.00000000
Si      -1.23214302       1.53639135      -1.31612807       0.00000000
Si      -1.60489080      -1.08004329       1.39297796       0.00000000
Si       1.65355133       0.98968266       1.43530611       0.00000000
Si       0.24339966       1.05974595       3.47309453       0.00000000
Si       0.13039029      -2.52839180      -2.68183559       0.00000000
Si      -2.58655878       0.18997398      -2.68162742       0.00000000
Si       2.86545077      -2.53463345       0.22111257       0.00000000
Si      -2.80947114       2.68591149       0.05520008       0.00000000
Si      -2.88743508      -2.62600406       0.09027693       0.00000000
