10
Lattice="16.28999089631971 0.0 0.0 0.0 16.28999089631971 0.0 0.0 0.0 34.69518985606464" Properties=species:S:1:pos:R:3:initial_magmoms:R:1 pbc="T T T"
Si      -1.78919586       1.02289797      -1.08054760       0.00000000
Si       2.12534001       0.85506210      -0.51793008       0.00000000
Si      -0.42883425       0.54302715       2.27923238       0.00000000
Si      -0.12696426      -2.40486731      -0.15144459       0.00000000
Si       1.63828530      -0.34775892       2.99437003       0.00000000
Si      -2.48979618      -0.55118844       2.46634364       0.00000000
Si      -3.50467947       0.43390044       0.48274914       0.00000000
Si       3.35359691       0.44611794       1.42847116       0.00000000
Si      -2.12794641       0.02055798      -3.12805068       0.00000000
Si       0.11486079       0.11616399      -3.85182744       0.00000000
