10
Lattice="16.28999089631971 0.0 0.0 0.0 16.28999089631971 0.0 0.0 0.0 34.69518985606464" Properties=species:S:1:pos:R:3:initial_magmoms:R:1 pbc="T T T"
Si       1.35762489      -1.35651717      -1.35696433       0.00000000
Si       1.35589815       1.35718506       1.35831744       0.00000000
Si      -1.35979146      -1.35648459       1.35557652       0.00000000
Si      -1.35801585       1.35883035      -1.35717250       0.00000000
Si      -2.70744687      -0.00431685       2.71163877       0.00000000
Si       0.00042354      -2.70958086       2.71673897       0.00000000
Si      -2.71428867      -2.71296918       0.00055512       0.00000000
Si       2.71448939      -2.71334385       0.00083269       0.00000000
Si       2.71498989       0.00081450      -2.71389396       0.00000000
Si       0.00013032       2.71492398      -2.71403274       0.00000000
