10
Lattice="16.28999089631971 0.0 0.0 0.0 16.28999089631971 0.0 0.0 0.0 34.69518985606464" Properties=species:S:1:pos:R:3:initial_magmoms:R:1 pbc="T T T"
Si      -1.35125550       1.35656604       1.36192574       0.00000000
Si      -1.35589815      -1.35718506      -1.35831744       0.00000000
Si       1.35468650      -1.35237951       1.36452788       0.00000000
Si       1.35875219       1.35961227      -1.35748476       0.00000000
Si       0.00172674      -2.71370223      -2.71528177       0.00000000
Si      -2.71568961      -2.71366965      -0.00274092       0.00000000
Si      -2.71391400       0.00164529      -2.71548994       0.00000000
Si       2.71540032       2.71466334       0.00215110       0.00000000
Si      -2.71534752       2.71586880       0.00166537       0.00000000
Si       2.71783404      -2.71427238       0.00117964       0.00000000
