10
Lattice="16.28999089631971 0.0 0.0 0.0 16.28999089631971 0.0 0.0 0.0 34.69518985606464" Properties=species:S:1:pos:R:3:initial_magmoms:R:1 pbc="T T T"
Si      -0.68696559      -1.94028561       1.09381331       0.00000000
Si      -0.71719983       0.35608311      -2.19092930       0.00000000
Si       1.96072956       0.86786604       1.06257027       0.00000000
Si      -1.78204455       1.81190412      -0.09560404       0.00000000
Si      -2.04646383      -0.54771867       2.49033365       0.00000000
Si       1.24665741       1.37919285      -2.83796025       0.00000000
Si       0.68747058       2.20362975       2.50397233       0.00000000
Si      -3.52026900       0.67119687       1.00068443       0.00000000
Si      -0.65559105       3.59774424       1.08246451       0.00000000
Si      -0.77403564      -1.51470936      -3.55413876       0.00000000
