10
Lattice="16.28999089631971 0.0 0.0 0.0 16.28999089631971 0.0 0.0 0.0 34.69518985606464" Properties=species:S:1:pos:R:3:initial_magmoms:R:1 pbc="T T T"
Si      -1.35755973       1.35682668       1.36251556       0.00000000
Si       1.35891180      -1.35812988       1.36230739       0.00000000
Si       1.35889551       1.38383550      -1.36029507       0.00000000
Si      -1.37503890      -1.36751292      -1.37393376       0.00000000
Si      -2.71138905      -2.71396287       0.00287970       0.00000000
Si      -2.71011843       2.71559187       0.00093677       0.00000000
Si      -2.71368594       0.00052128       2.71958398       0.00000000
Si       0.00076563      -2.71422351       2.71916763       0.00000000
Si       2.71849149      -2.71541268       0.00444099       0.00000000
Si       2.71751409       2.71655298       0.00686965       0.00000000
