10
Lattice="16.28999089631971 0.0 0.0 0.0 16.28999089631971 0.0 0.0 0.0 34.69518985606464" Properties=species:S:1:pos:R:3:initial_magmoms:R:1 pbc="T T T"
Si       1.27325898      -1.33576371      -1.44140206       0.00000000
Si       1.35861858       1.33271748       1.36716472       0.00000000
Si      -1.35889551      -1.38383550       1.36029507       0.00000000
Si      -1.34306163       1.39411449      -1.42150783       0.00000000
Si      -0.68747058      -2.20362975      -2.50397233       0.00000000
Si      -2.46951513      -0.39172563      -2.59957637       0.00000000
Si       2.70207640       2.67415011      -0.03102099       0.00000000
Si      -0.00024435       2.68703550       2.72215142       0.00000000
Si      -2.72676681       2.68744275      -0.00388239       0.00000000
Si       2.71243868      -0.02617803       2.72336575       0.00000000
