10
Lattice="16.28999089631971 0.0 0.0 0.0 16.28999089631971 0.0 0.0 0.0 34.69518985606464" Properties=species:S:1:pos:R:3:initial_magmoms:R:1 pbc="T T T"
Si      -1.35040842       1.36049193       1.36046854       0.00000000
Si      -1.35501849      -1.35733167      -1.35925421       0.00000000
Si       1.36052451       1.35902583      -1.35908074       0.00000000
Si       1.36409202      -1.35930276       1.36026037       0.00000000
Si       2.71655298       2.71300176      -0.00447568       0.00000000
Si      -2.71301805       0.00052128      -2.71673897       0.00000000
Si      -2.71788876       2.71244790      -0.00149189       0.00000000
Si       2.71534752      -2.71586880      -0.00166537       0.00000000
Si       0.00143352      -2.71422351      -2.71715531       0.00000000
Si      -2.71510317      -2.71741635      -0.00197763       0.00000000
