10
Lattice="16.28999089631971 0.0 0.0 0.0 16.28999089631971 0.0 0.0 0.0 34.69518985606464" Properties=species:S:1:pos:R:3:initial_magmoms:R:1 pbc="T T T"
Si      -2.33181576      -0.26875242       0.53135713       0.00000000
Si       0.27702774       1.79603766      -1.61173125       0.00000000
Si       1.75687650       0.58880205       1.57075621       0.00000000
Si       1.18126935      -2.24010306       0.10013037       0.00000000
Si      -2.80319949      -0.90445338      -1.72893167       0.00000000
Si       3.26906973      -0.97684614       0.56712789       0.00000000
Si       0.82083681      -0.24169473       3.48926250       0.00000000
Si       1.80465507       0.85931379      -3.09009412       0.00000000
Si       1.66765617       3.27039669      -0.46550562       0.00000000
Si      -0.94920201      -1.85205897      -3.07697933       0.00000000
