10
Lattice="16.28999089631971 0.0 0.0 0.0 16.28999089631971 0.0 0.0 0.0 34.69518985606464" Properties=species:S:1:pos:R:3:initial_magmoms:R:1 pbc="T T T"
Si      -0.74015244       2.07423828       0.80187568       0.00000000
Si      -1.18571652      -0.56588202      -1.97384515       0.00000000
Si       0.35284140      -2.04946119       1.23147176       0.00000000
Si       2.12154444       0.92644488      -0.70552708       0.00000000
Si       2.84325660      -1.22344416      -1.28125938       0.00000000
Si       1.53598410      -3.03189480      -0.49281075       0.00000000
Si       1.00066212       2.83763655       2.22340779       0.00000000
Si       0.20193084       0.39234465      -3.74680504       0.00000000
Si      -0.97195914       3.45437595      -1.16922855       0.00000000
Si       3.04015383       1.77800463       1.41101946       0.00000000
