10
Lattice="16.28999089631971 0.0 0.0 0.0 16.28999089631971 0.0 0.0 0.0 34.69518985606464" Properties=species:S:1:pos:R:3:initial_magmoms:R:1 pbc="T T T"
Si      -1.35604476      -1.34493498       1.38381842       0.00000000
Si       1.36249560       1.36961174       1.38725325       0.00000000
Si      -1.54456893       1.23340617      -1.38364494       0.00000000
Si       1.17100665      -1.45816677      -1.52784864       0.00000000
Si       2.69586468       2.70575990      -0.00228294       0.00000000
Si       2.70562762      -2.72246625      -0.00819154       0.00000000
Si      -2.72321559      -2.70917361       0.01894705       0.00000000
Si      -2.71726974       2.71812401       0.02863743       0.00000000
Si       0.00330687      -2.70958086       2.74498087       0.00000000
Si      -2.71264338       0.00756895       2.74675033       0.00000000
