10
Lattice="16.28999089631971 0.0 0.0 0.0 16.28999089631971 0.0 0.0 0.0 34.69518985606464" Properties=species:S:1:pos:R:3:initial_magmoms:R:1 pbc="T T T"
Si      -1.02049650      -1.09191870      -1.85577735       0.00000000
Si       1.06753583      -1.38810348       1.63886290       0.00000000
Si      -1.60802241       0.87175935       1.55493519       0.00000000
Si       0.74505899       2.09958552      -1.17033880       0.00000000
Si      -3.29319033       0.02353905      -1.73722382       0.00000000
Si       0.68165831       3.64571829       0.62014217       0.00000000
Si      -1.54405158       3.22225974       1.29763552       0.00000000
Si      -1.46379075      -3.39696185      -1.15961798       0.00000000
Si       1.67824793      -3.51641967       0.78907314       0.00000000
Si       3.08326043      -0.52738875       2.51293931       0.00000000
