10
Lattice="16.28999089631971 0.0 0.0 0.0 16.28999089631971 0.0 0.0 0.0 34.69518985606464" Properties=species:S:1:pos:R:3:initial_magmoms:R:1 pbc="T T T"
Si      -2.29068351       0.09298332       0.35312784       0.00000000
Si       0.38889117      -0.66593520      -2.24922102       0.00000000
Si       0.74616345       2.20192323      -0.72172974       0.00000000
Si       0.59209263      -1.50547293       1.93828256       0.00000000
Si       0.66398040       3.30412418       1.27001813       0.00000000
Si       2.46944997       1.79294812       2.00906079       0.00000000
Si      -2.55770919       1.12208356       2.41707645       0.00000000
Si      -3.00897477      -2.14316127      -0.04399353       0.00000000
Si       0.18985995      -2.98976886      -2.36093960       0.00000000
Si       2.37602682       0.50015187      -3.00897672       0.00000000
