10
Lattice="16.28999089631971 0.0 0.0 0.0 16.28999089631971 0.0 0.0 0.0 34.69518985606464" Properties=species:S:1:pos:R:3:initial_magmoms:R:1 pbc="T T T"
Si      -0.58103172      -0.75507408       2.14929882       0.00000000
Si      -1.74081456      -0.76339827      -1.42153211       0.00000000
Si      -0.31237704       2.35322082       0.28845597       0.00000000
Si       2.03949171      -1.05963192      -0.81238832       0.00000000
Si       1.12088232      -1.91119167      -2.92893487       0.00000000
Si      -1.00066212      -2.83763655      -2.22340779       0.00000000
Si      -3.66935508      -1.01652858      -0.05679606       0.00000000
Si      -2.91599145      -1.13775876       2.17795707       0.00000000
Si       3.75576117       0.65052486      -0.57066680       0.00000000
Si      -0.27639243      -3.09006639       2.36014161       0.00000000
