10
Lattice="16.28999089631971 0.0 0.0 0.0 16.28999089631971 0.0 0.0 0.0 34.69518985606464" Properties=species:S:1:pos:R:3:initial_magmoms:R:1 pbc="T T T"
Si      -1.83446318      -0.80980848       1.18721598       0.00000000
Si      -0.10535476      -0.57831129      -2.32589744       0.00000000
Si       1.80300326      -1.57807746       0.18498206       0.00000000
Si       0.94121339       1.84893129       1.27054346       0.00000000
Si      -0.26345558      -2.01958533       2.68976834       0.00000000
Si       2.03551043      -1.68042753      -2.14319247       0.00000000
Si      -0.24196357       1.68080220      -3.09127375       0.00000000
Si       2.45191541       0.72109314       2.72990723       0.00000000
Si       1.00874196      -3.51728467       1.21563482       0.00000000
Si       3.68871737      -0.59364018       1.28135796       0.00000000
