10
Lattice="16.28999089631971 0.0 0.0 0.0 16.28999089631971 0.0 0.0 0.0 34.69518985606464" Properties=species:S:1:pos:R:3:initial_magmoms:R:1 pbc="T T T"
Si      -0.13660881       2.25911349      -0.76537632       0.00000000
Si       0.10535476       0.57831129       2.32589744       0.00000000
Si       2.14086519      -1.10211624       0.18270497       0.00000000
Si      -1.58888410      -1.53515331      -1.24885406       0.00000000
Si       1.90835802      -0.99976617       2.51087950       0.00000000
Si      -0.40214131      -1.02921849      -3.27269500       0.00000000
Si      -2.15927845       2.39399469      -2.07779200       0.00000000
Si       1.15955071       2.49885342      -2.68756030       0.00000000
Si       3.04396650       1.21081941      -2.02606144       0.00000000
Si      -1.72910842      -0.23149719       3.51311341       0.00000000
