10
Lattice="16.28999089631971 0.0 0.0 0.0 16.28999089631971 0.0 0.0 0.0 34.69518985606464" Properties=species:S:1:pos:R:3:initial_magmoms:R:1 pbc="T T T"
Si      -1.34461407      -1.34781831       1.36598161       0.00000000
Si       1.18946322      -1.56693510      -1.28501687       0.00000000
Si       1.36954917       1.36907676       1.36958992       0.00000000
Si      -1.39521732       1.23287607      -1.49524555       0.00000000
Si       2.25567630      -0.24224859      -2.87729248       0.00000000
Si      -2.71676670       2.70710478      -0.02762433       0.00000000
Si       2.70645318       2.71867068      -0.00615493       0.00000000
Si      -2.71988253      -2.71233387      -0.02189615       0.00000000
Si      -2.70640442       0.00677664       2.72676242       0.00000000
Si       0.01076769      -2.70801702       2.72610321       0.00000000
