10
Lattice="16.28999089631971 0.0 0.0 0.0 16.28999089631971 0.0 0.0 0.0 34.69518985606464" Properties=species:S:1:pos:R:3:initial_magmoms:R:1 pbc="T T T"
Si      -1.35664813      -1.35505107      -1.35963586       0.00000000
Si       1.35842636       1.35961227      -1.35987873       0.00000000
Si       1.36927550      -1.36417347       1.34978242       0.00000000
Si      -1.36413797       1.36879983       1.35488262       0.00000000
Si      -2.69479347      -0.00423540       2.72333106       0.00000000
Si       2.71606754      -2.71018359      -0.00492672       0.00000000
Si      -2.71419486       2.71420722      -0.00496141       0.00000000
Si      -2.71540032      -2.71466334      -0.00215110       0.00000000
Si       0.00185543      -2.71314837      -2.71725940       0.00000000
Si      -2.71349439       0.00252495      -2.71753696       0.00000000
