10
Lattice="16.28999089631971 0.0 0.0 0.0 16.28999089631971 0.0 0.0 0.0 34.69518985606464" Properties=species:S:1:pos:R:3:initial_magmoms:R:1 pbc="T T T"
Si       0.87052783      -1.78162101      -1.36029507       0.00000000
Si      -1.83336524       0.92018952      -1.38076524       0.00000000
Si      -0.36895058      -0.91597041       2.27645676       0.00000000
Si       1.83567123       1.80219528      -0.10488362       0.00000000
Si       2.23070373      -0.43974855      -2.75431388       0.00000000
Si      -0.50270974       2.29322475      -2.74921369       0.00000000
Si      -2.45675096      -2.17922733       1.80945925       0.00000000
Si      -1.88114381       0.64967778       3.28008508       0.00000000
Si      -3.36099257       1.85691339       0.09759762       0.00000000
Si       2.11331799      -3.21318621       0.20785900       0.00000000
