10
Lattice="16.28999089631971 0.0 0.0 0.0 16.28999089631971 0.0 0.0 0.0 34.69518985606464" Properties=species:S:1:pos:R:3:initial_magmoms:R:1 pbc="T T T"
Si      -1.54701243      -1.08188406      -1.43443873       0.00000000
Si      -0.34142211       0.14985171       2.45225739       0.00000000
Si       1.19011482       1.71642843      -1.40199871       0.00000000
Si       2.13457644      -1.52300097      -0.03969132       0.00000000
Si       2.05786683      -0.57301704       2.27104431       0.00000000
Si       0.19663659      -1.98866691      -2.71441439       0.00000000
Si      -1.08051570       2.46767436       2.53628919       0.00000000
Si      -2.52678100       0.74342673      -2.70223637       0.00000000
Si       2.31081795       3.00780189       0.25882626       0.00000000
Si       3.47969061       1.17806022       1.33965142       0.00000000
