10
Lattice="16.28999089631971 0.0 0.0 0.0 16.28999089631971 0.0 0.0 0.0 34.69518985606464" Properties=species:S:1:pos:R:3:initial_magmoms:R:1 pbc="T T T"
Si       0.89072091       0.69975324       2.08202481       0.00000000
Si      -0.25054020      -2.34988137       0.26732659       0.00000000
Si      -1.96296553       1.36309833      -0.00246336       0.00000000
Si       1.46805480       0.93364506      -1.83367650       0.00000000
Si      -0.65683072       3.42375075       0.23394980       0.00000000
Si       1.24587549      -2.75159277       2.08663927       0.00000000
Si       0.72896121       3.25146771      -1.74964471       0.00000000
Si      -3.08787443       0.80407440      -2.05971579       0.00000000
Si       0.22059918       2.95943688       2.42824830       0.00000000
Si      -2.47625009      -2.77333992       0.94481994       0.00000000
