10
Lattice="16.28999089631971 0.0 0.0 0.0 16.28999089631971 0.0 0.0 0.0 34.69518985606464" Properties=species:S:1:pos:R:3:initial_magmoms:R:1 pbc="T T T"
Si      -1.52015741      -1.02291426       1.58386202       0.00000000
Si       1.23020940       1.51277085       1.52662186       0.00000000
Si      -0.28436543       1.75759326      -1.81095114       0.00000000
Si       1.01224268      -2.12447664      -1.09220519       0.00000000
Si      -2.23422956      -0.51158745      -2.31666851       0.00000000
Si       1.98871578      -0.79677648      -2.74560538       0.00000000
Si       3.15214758       0.99818604      -1.31498313       0.00000000
Si       2.47392972       2.92423419       0.06546986       0.00000000
Si      -0.09445581      -2.43243909       2.99997127       0.00000000
Si      -3.48088697      -1.89078030       0.52129174       0.00000000
