10
Lattice="16.28999089631971 0.0 0.0 0.0 16.28999089631971 0.0 0.0 0.0 34.69518985606464" Properties=species:S:1:pos:R:3:initial_magmoms:R:1 pbc="T T T"
Si      -1.36291588      -1.35430173       1.38299614       0.00000000
Si       1.35254241       1.36266080       1.38670853       0.00000000
Si      -1.47031259       1.20307581      -1.47231202       0.00000000
Si       1.33512840      -1.39786119      -1.49210911       0.00000000
Si       2.69047269      -2.71588509       0.01738230       0.00000000
Si       2.70783783       2.71390490      -0.00877095       0.00000000
Si      -2.74251014       2.70077516       0.00182150       0.00000000
Si       2.70840798      -0.00019769       2.74939757       0.00000000
Si      -2.73274719      -2.72745099      -0.00408710       0.00000000
Si      -0.00677664      -2.71629234       2.74988330       0.00000000
