10
Lattice="16.28999089631971 0.0 0.0 0.0 16.28999089631971 0.0 0.0 0.0 34.69518985606464" Properties=species:S:1:pos:R:3:initial_magmoms:R:1 pbc="T T T"
Si       1.35379525       1.35449721       1.35703372       0.00000000
Si      -1.35651281       1.35733167      -1.35692963       0.00000000
Si       1.35814143      -1.35782037      -1.35682555       0.00000000
Si      -1.35724586      -1.36045935       1.35543774       0.00000000
Si      -0.00718898      -2.70586674       2.71528177       0.00000000
Si       2.71381152      -0.00431685      -2.71375518       0.00000000
Si      -2.71327433      -2.71443528       0.00083269       0.00000000
Si      -0.00196710       2.71379310      -2.71455317       0.00000000
Si      -2.71413770       2.71449305       0.00065921       0.00000000
Si      -2.71447979      -0.00259011      -2.71455317       0.00000000
