10
Lattice="16.28999089631971 0.0 0.0 0.0 16.28999089631971 0.0 0.0 0.0 34.69518985606464" Properties=species:S:1:pos:R:3:initial_magmoms:R:1 pbc="T T T"
Si      -1.35379525      -1.35449721      -1.35703372       0.00000000
Si       1.35970675      -1.34980569       1.35980934       0.00000000
Si      -1.35077211       1.36103207       1.35942769       0.00000000
Si       1.36153123       1.36047469      -1.35613164       0.00000000
Si       0.01457140       2.68540880       2.72149221       0.00000000
Si      -2.71030806       0.00283446      -2.71396335       0.00000000
Si      -2.71104111      -2.71495656      -0.00159598       0.00000000
Si       0.00434617      -2.71231758      -2.71385927       0.00000000
Si      -2.71224657       2.71515597       0.00090208       0.00000000
Si       2.71562119       2.71457767       0.00062451       0.00000000
