10
Lattice="16.28999089631971 0.0 0.0 0.0 16.28999089631971 0.0 0.0 0.0 34.69518985606464" Properties=species:S:1:pos:R:3:initial_magmoms:R:1 pbc="T T T"
Si      -1.38579193       0.17228304       1.98359450       0.00000000
Si       0.73909359      -2.31782265      -0.08403180       0.00000000
Si       1.98824337       1.40168934      -0.42213661       0.00000000
Si      -1.61938075       0.90300357      -2.12417949       0.00000000
Si       1.08051570      -2.46767436      -2.53628919       0.00000000
Si      -2.69192674      -1.88836938       1.74718135       0.00000000
Si      -0.72896121      -3.25146771       1.74964471       0.00000000
Si      -2.11721456       2.44643157       2.01856727       0.00000000
Si       3.57226668       1.10151351       1.30353371       0.00000000
Si       1.53539766       3.77343256      -0.08094392       0.00000000
