10
Lattice="16.290000149 0.0 0.0 0.0 16.290000149 0.0 0.0 0.0 29.1751946751" Properties=species:S:1:pos:R:3:initial_magmoms:R:1 pbc="T T T"
Si      -1.34376211      -1.37834578       1.31337974       0.00000000
Si       1.30430773      -1.34587981      -1.43177268       0.00000000
Si       1.22947147       1.43334082       1.42660867       0.00000000
Si      -1.40051647       1.34102051      -1.36035180       0.00000000
Si       0.20165391      -2.70270650       2.49833027       0.00000000
Si       2.64249866       2.71725347       0.04513403       0.00000000
Si      -2.70850574      -0.00873144       2.65756848       0.00000000
Si      -0.29165616       2.75024073       2.62366691       0.00000000
Si       2.65926107       0.00905724      -2.76598351       0.00000000
Si      -0.06522516       2.70488936      -2.72963121       0.00000000
