10
Lattice="16.290000149 0.0 0.0 0.0 16.290000149 0.0 0.0 0.0 29.1751946751" Properties=species:S:1:pos:R:3:initial_magmoms:R:1 pbc="T T T"
Si      -1.08455563      -1.15909867       1.71077507       0.00000000
Si       0.87418657      -1.78069250      -1.28586753       0.00000000
Si       1.87380614       1.46274427       0.15599977       0.00000000
Si      -1.59905899       1.30303711      -1.21112068       0.00000000
H        0.48092967       2.30047382       1.77265565       0.00000000
H       -1.23518926      -0.35797275       2.99039910       0.00000000
H        2.59465493       1.53942130       1.48052443       0.00000000
Si       1.99521551      -0.33985827      -2.83725851       0.00000000
Si      -3.29567880      -1.08577738       0.89926703       0.00000000
Si      -0.28483065       2.65852802      -2.59924727       0.00000000
