10
Lattice="16.290000149 0.0 0.0 0.0 16.290000149 0.0 0.0 0.0 29.1751946751" Properties=species:S:1:pos:R:3:initial_magmoms:R:1 pbc="T T T"
Si      -1.39611817       1.42648273      -1.22398694       0.00000000
Si      -1.32535441      -1.38251602       1.37620560       0.00000000
Si       1.19834128      -1.47139426      -1.43066402       0.00000000
Si       1.30697929       1.44777376       1.37066523       0.00000000
H        3.18075285       1.76477717      -0.54820191       0.00000000
Si      -0.00226431       2.65598678      -2.65298798       0.00000000
Si       2.66686850      -2.68330511       0.02237737       0.00000000
Si       2.53351856      -0.14400360      -2.82908945       0.00000000
Si      -2.89729056       0.14185332      -2.51175086       0.00000000
Si       2.72319932       0.08219934       2.71683789       0.00000000
