10
Lattice="16.290000149 0.0 0.0 0.0 16.290000149 0.0 0.0 0.0 29.1751946751" Properties=species:S:1:pos:R:3:initial_magmoms:R:1 pbc="T T T"
Si      -1.34284987       1.35798328      -1.36901683       0.00000000
Si       1.32763175      -1.34925184      -1.39539121       0.00000000
Si       1.34823046       1.37823175       1.35154089       0.00000000
Si      -1.34415307      -1.37161801       1.36326932       0.00000000
Si       2.66660786      -2.70824510      -0.03232612       0.00000000
Si      -2.68687262       2.72290610      -0.01791357       0.00000000
Si      -2.70940169      -2.71140536      -0.00904431       0.00000000
Si      -2.72777681      -0.02795364       2.69899726       0.00000000
Si       2.71858925       0.03582171       2.70850837       0.00000000
Si       2.70837542       2.72852616      -0.00210061       0.00000000
