10
Lattice="16.290000149 0.0 0.0 0.0 16.290000149 0.0 0.0 0.0 29.1751946751" Properties=species:S:1:pos:R:3:initial_magmoms:R:1 pbc="T T T"
Si       1.37363797       1.31615056       1.34993626       0.00000000
Si       1.72776629      -0.80327620      -1.35451676       0.00000000
Si      -1.43789062       1.16292682      -1.45120336       0.00000000
Si      -1.23974720      -1.69315004       1.16438202       0.00000000
H        0.16428465      -2.71599914       0.82437430       0.00000000
Si      -1.65348063      -0.70739326      -2.87165606       0.00000000
Si       0.65801827      -0.88410718      -3.46038231       0.00000000
Si      -0.07177374       2.50375673       2.71187052       0.00000000
Si       2.59599071      -2.65082285      -0.24168731       0.00000000
Si      -2.89522173       2.35957394      -0.09391495       0.00000000
