10
Lattice="16.290000149 0.0 0.0 0.0 16.290000149 0.0 0.0 0.0 29.1751946751" Properties=species:S:1:pos:R:3:initial_magmoms:R:1 pbc="T T T"
Si       1.35549091       1.36798534       1.33762433       0.00000000
Si      -1.32822960       1.36115983      -1.37391827       0.00000000
Si       1.38425905      -1.35492402      -1.33453175       0.00000000
Si      -1.34736220      -1.35373322       1.37619393       0.00000000
Si       2.71037909       0.00118917       2.67466515       0.00000000
Si      -2.69858513      -0.00752598      -2.69858881       0.00000000
Si       0.05856255      -2.69205284       2.70917940       0.00000000
Si       0.02766042      -2.71749782      -2.68502234       0.00000000
Si      -2.69395877       2.71218728      -0.02444881       0.00000000
Si      -0.02256165       2.71371854       2.69511696       0.00000000
