10
Lattice="16.290000149 0.0 0.0 0.0 16.290000149 0.0 0.0 0.0 29.1751946751" Properties=species:S:1:pos:R:3:initial_magmoms:R:1 pbc="T T T"
Si       1.34842105       1.35482302       1.36449468       0.00000000
Si       1.37999107      -1.34993602      -1.34742719       0.00000000
Si      -1.35806473      -1.34555401       1.37499775       0.00000000
Si      -1.35293338       1.36901161      -1.35991417       0.00000000
Si      -0.04994514      -2.75017557      -2.59191262       0.00000000
Si       2.68048694      -2.70001865       0.07098325       0.00000000
Si      -0.02065572       2.71865441       2.70171055       0.00000000
Si       2.69465924      -0.00402363       2.73438677       0.00000000
Si       2.70026300       2.73030177       0.01779687       0.00000000
Si      -2.67529043       0.03083697      -2.75666787       0.00000000
