10
Lattice="16.290000149 0.0 0.0 0.0 16.290000149 0.0 0.0 0.0 29.1751946751" Properties=species:S:1:pos:R:3:initial_magmoms:R:1 pbc="T T T"
Si      -0.93207145       0.81209397       1.99558332       0.00000000
Si       1.36069720       1.38919981      -1.33173094       0.00000000
Si      -1.86889307      -0.89749593      -1.12216551       0.00000000
Si       1.84120333      -1.17294028       0.93337283       0.00000000
H        2.63999978       1.43837932      -0.50884457       0.00000000
H       -2.91399432       0.21720760      -1.10282236       0.00000000
Si       0.52397763      -2.59898319       2.27852435       0.00000000
Si       1.96305253      -0.12833914      -3.09265816       0.00000000
Si       0.40428034       2.78764745       2.48076680       0.00000000
Si      -0.64584312      -1.00978925       3.56792208       0.00000000
