10
Lattice="16.290000149 0.0 0.0 0.0 16.290000149 0.0 0.0 0.0 29.1751946751" Properties=species:S:1:pos:R:3:initial_magmoms:R:1 pbc="T T T"
Si       1.74708623       0.32236281      -1.49228203       0.00000000
Si      -1.91816381       1.06031448      -0.77818997       0.00000000
Si       0.63863317       0.67653022       2.14636072       0.00000000
Si      -0.04385268      -2.14526596       0.98016984       0.00000000
Si       1.86434165      -1.98288724      -1.72737575       0.00000000
Si      -0.60488029      -1.10966178       2.98987395       0.00000000
H        1.32719518       2.98821808       0.00764390       0.00000000
Si      -0.75605149       2.50008822      -2.28202538       0.00000000
Si      -2.89228953       1.46373471       1.37426837       0.00000000
Si       2.15080130      -2.86852567       0.51392105       0.00000000
