10
Lattice="16.290000149 0.0 0.0 0.0 16.290000149 0.0 0.0 0.0 29.1751946751" Properties=species:S:1:pos:R:3:initial_magmoms:R:1 pbc="T T T"
Si      -2.19465398       0.72325972       0.46624879       0.00000000
Si      -0.26810082      -2.03046707       1.19635803       0.00000000
Si       1.57509640       1.31075857       1.20604420       0.00000000
Si      -0.28645965       0.88563844      -2.24129681       0.00000000
H        2.24746616      -0.95301388      -1.63401513       0.00000000
H        0.80853787      -1.86390182      -2.18297559       0.00000000
H        1.61546302      -2.61193862      -0.52976318       0.00000000
H        1.04448223      -2.49051296       1.80130569       0.00000000
Si      -2.15080130       2.86852567      -0.51392105       0.00000000
Si      -2.41354271      -0.08433333      -2.92128307       0.00000000
