10
Lattice="16.290000149 0.0 0.0 0.0 16.290000149 0.0 0.0 0.0 29.1751946751" Properties=species:S:1:pos:R:3:initial_magmoms:R:1 pbc="T T T"
H        1.40403185      -1.02284911      -0.34000772       0.00000000
Si      -1.06129188      -1.76228480      -1.22322839       0.00000000
Si      -1.43604187       1.27154854       1.43387329       0.00000000
Si       1.23974720       1.69315004      -1.16438202       0.00000000
Si       1.40978222      -1.47504322       1.37514363       0.00000000
Si       2.46126915      -2.71394660      -0.51336673       0.00000000
Si      -2.81335144       2.42007500      -0.06885346       0.00000000
Si      -2.72797555      -2.53068410       0.23068826       0.00000000
Si       2.59186609       0.03661992       2.78269506       0.00000000
Si      -0.11056675      -2.66514176       2.78562133       0.00000000
