10
Lattice="16.290000149 0.0 0.0 0.0 16.290000149 0.0 0.0 0.0 29.1751946751" Properties=species:S:1:pos:R:3:initial_magmoms:R:1 pbc="T T T"
Si       1.36728487       1.35806473       1.32922187       0.00000000
Si       1.37127592      -1.35684298      -1.33257702       0.00000000
Si      -1.34301277       1.38316762      -1.34378029       0.00000000
Si      -1.37510407      -1.33638274       1.36204396       0.00000000
Si      -0.07060086       2.69281847       2.61027549       0.00000000
Si      -0.00192222      -2.70405857      -2.67606556       0.00000000
Si      -2.69110802       0.02138877      -2.69432923       0.00000000
Si      -0.02021589      -2.70317891       2.69908479       0.00000000
Si       2.72077211       0.00794952      -2.68963202       0.00000000
Si       2.72091872       2.70943427      -0.03270539       0.00000000
