10
Lattice="16.290000149 0.0 0.0 0.0 16.290000149 0.0 0.0 0.0 29.1751946751" Properties=species:S:1:pos:R:3:initial_magmoms:R:1 pbc="T T T"
Si       1.38798946       1.34363179       1.27928852       0.00000000
Si       1.25423227      -1.40320432      -1.36574630       0.00000000
Si      -1.31719312       1.26113923      -1.47272298       0.00000000
Si      -1.41110497      -1.40463784       1.25813651       0.00000000
Si      -2.17434035      -0.67523680      -2.51309875       0.00000000
Si      -0.46973844      -2.34424505      -2.63951721       0.00000000
Si      -0.03670137       2.70363503       2.54966403       0.00000000
Si       2.72036812      -0.06545322       2.58721250       0.00000000
Si       2.56204235      -0.08633700      -2.74931776       0.00000000
Si       2.67783167       2.66188376      -0.18782699       0.00000000
