10
Lattice="16.290000149 0.0 0.0 0.0 16.290000149 0.0 0.0 0.0 29.1751946751" Properties=species:S:1:pos:R:3:initial_magmoms:R:1 pbc="T T T"
Si      -1.33691705      -1.35040843       1.37012549       0.00000000
Si       1.35169534      -1.36138789      -1.36087696       0.00000000
Si      -1.40592475       1.33831962      -1.33298547       0.00000000
Si       1.34363179       1.34640109       1.38859339       0.00000000
Si       2.65181654       2.69324201      -0.03451426       0.00000000
Si      -2.71596168       0.04528278       2.66821743       0.00000000
Si      -0.05856255       2.69205284      -2.70917940       0.00000000
Si       2.71547786      -0.01145187      -2.71072569       0.00000000
Si      -2.71643997      -2.71023248       0.01315801       0.00000000
Si      -0.07516206       2.70172910       2.72484648       0.00000000
