10
Lattice="16.290000149 0.0 0.0 0.0 16.290000149 0.0 0.0 0.0 29.1751946751" Properties=species:S:1:pos:R:3:initial_magmoms:R:1 pbc="T T T"
Si       1.25053444      -1.36932112       1.41365197       0.00000000
Si       1.90734725       0.78956002      -1.12247477       0.00000000
Si      -1.28798515       1.45013581       1.32669238       0.00000000
Si      -1.83783782      -0.88122385      -1.18748002       0.00000000
H        0.69545269      -1.82568548      -1.92130035       0.00000000
Si       1.25340148       1.21368646      -3.25390654       0.00000000
Si       2.67058262       0.06015897       2.64876049       0.00000000
Si      -2.71347419       0.05993091       2.61010336       0.00000000
Si       2.74815561      -2.60572888       0.13436928       0.00000000
Si      -3.47107323       0.85304215      -1.28098127       0.00000000
