10
Lattice="16.290000149 0.0 0.0 0.0 16.290000149 0.0 0.0 0.0 29.1751946751" Properties=species:S:1:pos:R:3:initial_magmoms:R:1 pbc="T T T"
Si       1.39387015       1.43387839      -1.17541024       0.00000000
Si       1.69771124      -1.60034590       0.01773852       0.00000000
Si      -0.95620672       1.26793216       1.75719280       0.00000000
Si      -1.58216626      -0.81124201      -1.57210537       0.00000000
Si      -2.06254208       1.21784041      -2.63381987       0.00000000
Si      -0.16969293       2.71753040      -2.29964719       0.00000000
Si       0.62986915      -3.35989398      -1.04800217       0.00000000
Si      -2.40231890       2.68688891       0.53661936       0.00000000
Si      -0.29198196      -2.31752945      -2.88495995       0.00000000
Si       2.35165700      -2.02447235       2.14917029       0.00000000
