10
Lattice="16.290000149 0.0 0.0 0.0 16.290000149 0.0 0.0 0.0 29.1751946751" Properties=species:S:1:pos:R:3:initial_magmoms:R:1 pbc="T T T"
Si      -1.38362374       1.34366437       1.33572794       0.00000000
Si      -1.36524862      -1.33978735      -1.37231363       0.00000000
Si       1.34415307       1.37161801      -1.36326932       0.00000000
Si       1.33986880      -1.36575361       1.37552290       0.00000000
Si      -2.68040549       2.64714131      -0.12507406       0.00000000
Si       2.66016354      -2.70195716      -0.03159674       0.00000000
Si       0.00439830       2.70220151       2.66620434       0.00000000
Si      -2.73326654      -0.04740390       2.68079194       0.00000000
Si       2.73131989       0.00972513       2.68744388       0.00000000
Si      -0.01837512      -2.68752422      -2.73928820       0.00000000
