10
Lattice="16.290000149 0.0 0.0 0.0 16.290000149 0.0 0.0 0.0 29.1751946751" Properties=species:S:1:pos:R:3:initial_magmoms:R:1 pbc="T T T"
Si       1.35202114       1.39792636      -1.32139708       0.00000000
Si      -1.35120664       1.36935370       1.36014758       0.00000000
Si       1.37670049      -1.34752510       1.35793026       0.00000000
Si      -1.36264222      -1.36580248      -1.36506943       0.00000000
Si       2.73450458       0.04214223      -2.64626018       0.00000000
Si      -2.70724490      -2.69588099       0.01622141       0.00000000
Si       2.68895774       2.72362286       0.08335353       0.00000000
Si       0.02057427      -2.68991885       2.73459100       0.00000000
Si      -2.69948108       0.02261052       2.72779318       0.00000000
Si      -2.71721112       2.72290610      -0.00530989       0.00000000
