10
Lattice="16.290000149 0.0 0.0 0.0 16.290000149 0.0 0.0 0.0 29.1751946751" Properties=species:S:1:pos:R:3:initial_magmoms:R:1 pbc="T T T"
Si       1.43226568      -1.22565961      -1.28607176       0.00000000
Si      -1.22222242       1.53367093      -1.24169629       0.00000000
Si       1.48766797       1.01371042       1.46844590       0.00000000
Si      -1.12102894      -1.44083422       1.55139098       0.00000000
H        2.07578585      -2.06770601      -0.20656038       0.00000000
Si      -1.99521551       0.33985827       2.83725851       0.00000000
Si      -0.12140937       1.80260255       2.99325827       0.00000000
Si       2.46596393      -0.84576052       2.36432860       0.00000000
Si      -0.00746082      -2.55583586      -2.49622966       0.00000000
Si       0.69957406      -2.32917680       2.69715922       0.00000000
