10
Lattice="16.290000149 0.0 0.0 0.0 16.290000149 0.0 0.0 0.0 29.1751946751" Properties=species:S:1:pos:R:3:initial_magmoms:R:1 pbc="T T T"
Si       1.24071157      -1.38952072       1.37231363       0.00000000
Si      -1.36089919       1.34765542       1.33374402       0.00000000
Si      -1.29345859      -1.43666398      -1.31308799       0.00000000
Si       1.45723825       1.29834559      -1.30261409       0.00000000
Si       2.68043807      -0.05934447       2.58247153       0.00000000
Si      -2.64834677      -0.06986781      -2.65012881       0.00000000
Si       0.09404217       2.62457966      -2.68295090       0.00000000
Si       0.02594997       2.69998607       2.62684700       0.00000000
Si      -2.60164334      -2.78350491       0.11001966       0.00000000
Si       0.13185126      -2.79874094      -2.61170508       0.00000000
