10
Lattice="16.290000149 0.0 0.0 0.0 16.290000149 0.0 0.0 0.0 29.1751946751" Properties=species:S:1:pos:R:3:initial_magmoms:R:1 pbc="T T T"
Si      -1.30781008      -1.31686732       1.38357146       0.00000000
Si       1.28168255      -1.42413697      -1.30803280       0.00000000
Si      -1.13370256       1.51317811      -1.36997174       0.00000000
Si       1.48370625       1.37872045       1.18496133       0.00000000
Si       1.97512994       0.35145675      -2.80139432       0.00000000
H       -2.33134337       0.97757920      -2.41100104       0.00000000
Si       0.53298111       2.28157742      -2.82388839       0.00000000
Si       0.14673071      -2.69700500       2.61092522       0.00000000
Si       0.11578932       2.74822077       2.56149077       0.00000000
Si      -2.56204235       0.08633700       2.74931776       0.00000000
