10
Lattice="16.290000149 0.0 0.0 0.0 16.290000149 0.0 0.0 0.0 29.1751946751" Properties=species:S:1:pos:R:3:initial_magmoms:R:1 pbc="T T T"
Si       1.34021741       1.35669637       1.37255870       0.00000000
Si      -1.28984221      -1.31825197       1.46711551       0.00000000
Si      -1.40323690       1.35184195      -1.34163591       0.00000000
Si       1.36791692      -1.36950031      -1.37652945       0.00000000
Si       0.04244180       2.56718999      -2.72827748       0.00000000
Si      -0.11578932      -2.74822077      -2.56149077       0.00000000
Si      -2.67783167      -2.66188376       0.18782699       0.00000000
Si       2.68482008       2.68677488      -0.00873214       0.00000000
Si       2.70817994       0.00807984       2.73681998       0.00000000
Si       2.76172518      -2.68597667      -0.00193432       0.00000000
