10
Lattice="16.290000149 0.0 0.0 0.0 16.290000149 0.0 0.0 0.0 29.1751946751" Properties=species:S:1:pos:R:3:initial_magmoms:R:1 pbc="T T T"
Si       1.42631983       1.38943927       1.17929054       0.00000000
Si      -1.31962033       1.44080164      -1.27621054       0.00000000
Si       1.43438338      -1.32175432      -1.28222063       0.00000000
Si      -1.38399841      -1.33553566       1.34071690       0.00000000
Si       0.05724306      -2.66196521      -2.61459342       0.00000000
Si      -2.66864411       0.07912053      -2.62404618       0.00000000
Si       0.01130526      -2.61853607       2.70045602       0.00000000
Si      -2.56756466       0.11551239       2.75297137       0.00000000
Si       2.72126081       0.09557343       2.60598674       0.00000000
Si       0.06942798       2.80051167      -2.58926935       0.00000000
