10
Lattice="16.290000149 0.0 0.0 0.0 16.290000149 0.0 0.0 0.0 29.1751946751" Properties=species:S:1:pos:R:3:initial_magmoms:R:1 pbc="T T T"
H       -0.06973749      -1.07595451      -1.06127688       0.00000000
Si       2.19595881       0.18528246       0.66297712       0.00000000
Si      -1.62272836      -0.67831561       1.55944333       0.00000000
Si      -0.45208008       2.12972204      -0.89617445       0.00000000
H       -1.89617231       2.41533461      -0.45974272       0.00000000
H        1.08282889       0.73318033      -2.99918084       0.00000000
Si      -3.15556851      -1.39973455      -0.05210690       0.00000000
H       -1.28699146      -3.24463408       0.67041680       0.00000000
Si       2.98770006      -2.07264188       0.44150822       0.00000000
Si       3.50681349      -0.07674219      -1.25567120       0.00000000
