10
Lattice="16.290000149 0.0 0.0 0.0 16.290000149 0.0 0.0 0.0 29.1751946751" Properties=species:S:1:pos:R:3:initial_magmoms:R:1 pbc="T T T"
H       -0.00575037       0.45219411      -1.71515134       0.00000000
Si       1.18208386       1.51166314       1.40755143       0.00000000
Si      -1.52034897      -1.19009854       1.41047770       0.00000000
Si      -1.40978222       1.47504322      -1.37514363       0.00000000
Si       1.05148693      -1.23890338      -1.88851035       0.00000000
Si      -1.02892528      -2.21736224      -2.57587794       0.00000000
Si      -2.47107411      -0.28724157      -2.59837201       0.00000000
Si       2.42595569       0.51737040      -2.78121296       0.00000000
Si      -0.12654072      -2.50657490       2.78507284       0.00000000
Si       2.54822843       0.14522535       2.77647199       0.00000000
