10
Lattice="16.290000149 0.0 0.0 0.0 16.290000149 0.0 0.0 0.0 29.1751946751" Properties=species:S:1:pos:R:3:initial_magmoms:R:1 pbc="T T T"
Si       1.34846992       1.02009610      -1.63281895       0.00000000
Si       1.43433451      -1.62684745       0.92736274       0.00000000
Si      -1.83521513      -1.18571327      -1.00464783       0.00000000
Si      -0.10754658       1.73203427       1.80512765       0.00000000
H       -2.25510617       1.48014199       0.49527810       0.00000000
Si       2.77531104       2.29133513      -0.22794580       0.00000000
Si       0.62933158       0.40690791       3.59523006       0.00000000
Si       2.62415612      -0.47848943       2.61981578       0.00000000
Si      -2.89862634       2.32218839      -0.58423327       0.00000000
Si       0.14359635      -3.06584319       2.20759946       0.00000000
