10
Lattice="16.290000149 0.0 0.0 0.0 16.290000149 0.0 0.0 0.0 29.1751946751" Properties=species:S:1:pos:R:3:initial_magmoms:R:1 pbc="T T T"
Si       1.33691705       1.35040843      -1.37012549       0.00000000
Si      -1.37904462       1.39569121       1.29809194       0.00000000
Si       1.34717975      -1.35264016       1.38628855       0.00000000
Si      -1.37952291      -1.35982405      -1.35696748       0.00000000
Si      -0.11796078      -2.73450458       2.60201891       0.00000000
Si      -2.69114386       0.05910012       2.66433713       0.00000000
Si       2.68582681      -2.68343543      -0.02214397       0.00000000
Si       2.68054885       2.69680952       0.01846790       0.00000000
Si      -0.06900770       2.68872806      -2.70311096       0.00000000
Si       2.68861240      -0.01097946      -2.73100245       0.00000000
