10
Lattice="16.290000149 0.0 0.0 0.0 16.290000149 0.0 0.0 0.0 29.1751946751" Properties=species:S:1:pos:R:3:initial_magmoms:R:1 pbc="T T T"
Si      -1.35027811      -1.34304535      -1.31232943       0.00000000
Si       1.39530367      -1.28300041       1.35973912       0.00000000
Si       1.38399841       1.33553566      -1.34071690       0.00000000
Si      -1.18356625       1.45104805       1.41225447       0.00000000
Si       2.27372564       0.60595543       2.42921423       0.00000000
Si       0.67192993       2.38268945       2.51819858       0.00000000
Si      -2.66043395       0.08436591      -2.60945859       0.00000000
Si       0.08760762      -2.67779909      -2.59338305       0.00000000
Si       0.01951542      -2.60239268       2.71641485       0.00000000
Si      -2.72230337      -2.59662602       0.11982252       0.00000000
