10
Lattice="16.290000149 0.0 0.0 0.0 16.290000149 0.0 0.0 0.0 29.1751946751" Properties=species:S:1:pos:R:3:initial_magmoms:R:1 pbc="T T T"
Si      -1.34672689      -1.29008656       1.37114662       0.00000000
Si       1.25473726       1.31919842       1.46993383       0.00000000
Si       1.36474363      -1.36961434      -1.34418874       0.00000000
Si      -1.42550533       1.36498798      -1.29619555       0.00000000
Si       2.41684958       2.75897217      -0.03390158       0.00000000
Si       2.70850574       0.00873144      -2.65756848       0.00000000
Si      -0.04395042      -2.69505020      -2.70042684       0.00000000
Si      -0.11732058       2.71182890      -2.71930319       0.00000000
Si      -2.75887443      -2.68446170       0.07162510       0.00000000
Si      -2.76913713       0.01858689      -2.68478894       0.00000000
