10
Lattice="16.290000149 0.0 0.0 0.0 16.290000149 0.0 0.0 0.0 29.1751946751" Properties=species:S:1:pos:R:3:initial_magmoms:R:1 pbc="T T T"
Si      -1.35944938      -1.36378252       1.34214648       0.00000000
Si      -1.35951454       1.35257826      -1.35369986       0.00000000
Si       1.33235911       1.35453306       1.38296258       0.00000000
Si       1.35094600      -1.36019872      -1.35962242       0.00000000
Si       2.68382639       2.70655094       0.01026967       0.00000000
Si      -2.71212212       0.02122587       2.67927483       0.00000000
Si       0.02800251      -2.70650207       2.68887347       0.00000000
Si      -2.70612740      -0.03543075      -2.69307469       0.00000000
Si       2.66449016      -0.01174509       2.75498446       0.00000000
Si      -0.00998577       2.74053189      -2.68931109       0.00000000
