10
Lattice="16.290000149 0.0 0.0 0.0 16.290000149 0.0 0.0 0.0 29.1751946751" Properties=species:S:1:pos:R:3:initial_magmoms:R:1 pbc="T T T"
Si       0.27510552      -0.82743427      -2.15070783       0.00000000
Si      -2.26908299       0.47952873      -0.11553377       0.00000000
Si       1.28585116       1.98586994       0.12110623       0.00000000
Si       1.02964204      -1.54134352       1.47903649       0.00000000
Si      -2.54609444       1.21671314       2.09159888       0.00000000
Si       3.35407845       1.25948905       0.96421101       0.00000000
Si       2.57248424      -0.23612355       2.67489855       0.00000000
Si       1.19568601       0.90484435      -3.42817290       0.00000000
Si       1.92642284      -2.48243312      -2.05186227       0.00000000
Si       2.38992221      -2.90186805       0.16203903       0.00000000
