10
Lattice="16.290000149 0.0 0.0 0.0 16.290000149 0.0 0.0 0.0 29.1751946751" Properties=species:S:1:pos:R:3:initial_magmoms:R:1 pbc="T T T"
Si      -1.41620537       1.22363965      -1.37852795       0.00000000
Si      -1.31360606      -1.48828699       1.26926684       0.00000000
Si       1.50483763      -1.33457455      -1.24861081       0.00000000
Si       0.66503926       1.87711301       1.29625390       0.00000000
Si       0.04893516       2.60550407      -2.59425831       0.00000000
Si       0.25080084      -2.56205864       2.63230276       0.00000000
Si      -2.75755494       2.52579710       0.04440465       0.00000000
Si       0.06963975      -2.74369215      -2.56625012       0.00000000
Si      -2.70454727      -0.18624357      -2.69753850       0.00000000
Si      -0.98627806       3.53211186       1.19740834       0.00000000
