10
Lattice="16.290000149 0.0 0.0 0.0 16.290000149 0.0 0.0 0.0 29.1751946751" Properties=species:S:1:pos:R:3:initial_magmoms:R:1 pbc="T T T"
Si      -1.36894645      -1.35280306       1.34658111       0.00000000
Si       1.30463353       1.29666772       1.47512702       0.00000000
Si      -1.36980982       1.41301090      -1.30557246       0.00000000
Si       1.36472734      -1.34644996      -1.39065316       0.00000000
Si       2.66009186       2.63816552       0.16032061       0.00000000
Si       2.71344161      -2.70936911      -0.01536366       0.00000000
Si      -0.01449810      -2.66822057       2.75688085       0.00000000
Si      -2.72761391       0.02334357       2.69861798       0.00000000
Si      -2.71528238      -2.71588511      -0.02618474       0.00000000
Si      -2.77843872       0.12469995      -2.66444128       0.00000000
