10
Lattice="16.290000149 0.0 0.0 0.0 16.290000149 0.0 0.0 0.0 29.1751946751" Properties=species:S:1:pos:R:3:initial_magmoms:R:1 pbc="T T T"
Si       1.36894645       1.35280306      -1.34658111       0.00000000
Si       1.35444835      -1.31541751       1.41029974       0.00000000
Si      -1.34633593      -1.36308205      -1.37276585       0.00000000
Si      -1.35866746       1.37614663       1.35203687       0.00000000
Si       2.67357998       2.64947078       0.12854591       0.00000000
Si      -2.69874803      -2.67670766       0.03258869       0.00000000
Si       0.08387721      -2.74348038      -2.66009797       0.00000000
Si      -0.00086337       2.76581397      -2.65215357       0.00000000
Si       2.77299786      -2.64606617       0.10724802       0.00000000
Si      -2.71479368       0.03375288       2.72869761       0.00000000
