10
Lattice="16.290000149 0.0 0.0 0.0 16.290000149 0.0 0.0 0.0 29.1751946751" Properties=species:S:1:pos:R:3:initial_magmoms:R:1 pbc="T T T"
Si      -1.56440691       1.07377165      -1.36303592       0.00000000
Si       1.38704464      -1.48027231      -1.20972027       0.00000000
Si      -0.85198330      -1.49263642       1.62572937       0.00000000
Si       0.42525045       1.81050320       1.49295306       0.00000000
H        0.33166440      -1.12054024       2.52473382       0.00000000
Si      -1.88624844       1.98721712       2.08167932       0.00000000
Si      -0.25080084       2.56205864      -2.63230276       0.00000000
Si      -3.05222475       2.14752701       0.06307677       0.00000000
Si       2.70127298      -0.12478140      -2.59784686       0.00000000
Si      -0.11627802      -2.82230769      -2.51353055       0.00000000
