10
Lattice="16.290000149 0.0 0.0 0.0 16.290000149 0.0 0.0 0.0 29.1751946751" Properties=species:S:1:pos:R:3:initial_magmoms:R:1 pbc="T T T"
Si      -1.35770635      -1.35040843      -1.35241615       0.00000000
Si      -1.34400646       1.33105591       1.38681370       0.00000000
Si       1.34130232       1.35278677      -1.38579257       0.00000000
Si       1.34543998      -1.38085444       1.35431254       0.00000000
Si       0.06698448      -2.71041167      -2.62279165       0.00000000
Si      -2.70707222       2.67108761       0.02342768       0.00000000
Si       2.70480791       2.68302818      -0.00577669       0.00000000
Si      -2.69565293      -0.06022413       2.71448929       0.00000000
Si       2.69722981      -0.02805138       2.71580217       0.00000000
Si       2.69704410      -0.03546333      -2.71734846       0.00000000
