10
Lattice="16.290000149 0.0 0.0 0.0 16.290000149 0.0 0.0 0.0 29.1751946751" Properties=species:S:1:pos:R:3:initial_magmoms:R:1 pbc="T T T"
Si      -1.18364770      -0.37209618      -0.89900445       0.00000000
H        1.41924997      -2.02074194       0.46706569       0.00000000
Si      -0.33166440       1.12054024      -2.52473382       0.00000000
Si       0.09358605       2.93104344      -1.03178076       0.00000000
Si      -1.95209425      -2.48652191       0.29458194       0.00000000
Si      -1.42332247      -1.57040488       2.39224926       0.00000000
Si       2.03155850       1.16432776       2.18691424       0.00000000
Si       0.65708974      -0.59194603       3.07961685       0.00000000
Si      -0.64123957      -2.74854657      -1.62406639       0.00000000
H        3.13536891       0.63770464      -0.75067776       0.00000000
