10
Lattice="16.290000149 0.0 0.0 0.0 16.290000149 0.0 0.0 0.0 29.1751946751" Properties=species:S:1:pos:R:3:initial_magmoms:R:1 pbc="T T T"
Si       1.29565774       1.28495147       1.50581057       0.00000000
Si      -1.33542163      -1.36333829       1.40876804       0.00000000
Si       1.48292758      -1.29770588      -1.33975411       0.00000000
Si      -1.35878149       1.38291464      -1.39862966       0.00000000
Si      -0.00327429      -2.54532442      -2.71889474       0.00000000
Si      -2.61114041       2.72473498       0.08989023       0.00000000
Si       2.69592986      -2.71408882       0.10998494       0.00000000
Si       0.17117532       2.73662668      -2.69085738       0.00000000
Si       2.28504719       3.06930107       0.35101260       0.00000000
Si       2.37265481       2.37308275      -1.87847408       0.00000000
