10
Lattice="16.290000149 0.0 0.0 0.0 16.290000149 0.0 0.0 0.0 29.1751946751" Properties=species:S:1:pos:R:3:initial_magmoms:R:1 pbc="T T T"
Si      -1.35979147      -1.36298431       1.34316761       0.00000000
Si       1.35593074       1.35314515       1.35935985       0.00000000
Si       1.36782244      -1.38052864      -1.32099446       0.00000000
Si      -1.38236941       1.33749046      -1.35215357       0.00000000
Si      -0.01915704       2.69980688      -2.68163802       0.00000000
Si       2.71782362      -0.04129515       2.66419125       0.00000000
Si      -0.00306252      -2.70671384      -2.68875677       0.00000000
Si      -2.73440684       0.00153126       2.67530700       0.00000000
Si      -0.00851967      -2.73955449       2.68475976       0.00000000
Si       2.73075789       2.69591357       0.01733007       0.00000000
