10
Lattice="16.290000149 0.0 0.0 0.0 16.290000149 0.0 0.0 0.0 29.1751946751" Properties=species:S:1:pos:R:3:initial_magmoms:R:1 pbc="T T T"
H        1.21670011      -1.96604012       0.21569221       0.00000000
H       -1.98309575      -0.62382556      -1.08108684       0.00000000
Si       1.87774832       0.70060033       1.27761095       0.00000000
Si      -0.76080817      -1.87209569       1.28055764       0.00000000
Si       0.63102574      -0.33218568      -2.32855981       0.00000000
Si      -1.77912866       1.54787581       0.63033008       0.00000000
H       -2.63295272      -0.19995975      -1.12534561       0.00000000
H        2.84390823       0.45097236      -1.20435204       0.00000000
H       -0.43554573       2.16283961      -2.21573933       0.00000000
H        2.33621408       1.98435008       0.61968113       0.00000000
