10
Lattice="16.290000149 0.0 0.0 0.0 16.290000149 0.0 0.0 0.0 29.1751946751" Properties=species:S:1:pos:R:3:initial_magmoms:R:1 pbc="T T T"
Si      -1.32896428       1.35922132      -1.36551581       0.00000000
Si       1.31053051       1.42988734       1.32289085       0.00000000
Si      -1.34198650      -1.36855549       1.36309427       0.00000000
Si       1.37805256      -1.34573320      -1.35749263       0.00000000
Si       2.66550014       0.07179003       2.62638020       0.00000000
Si      -2.64925901       2.69542487       0.04160383       0.00000000
Si       2.68255577       2.68346801      -0.10926110       0.00000000
Si      -2.67139712      -0.00153126      -2.71956577       0.00000000
Si      -2.61367693      -0.00747711       2.78596851       0.00000000
Si       0.02256165      -2.71371854      -2.69511696       0.00000000
