10
Lattice="16.290000149 0.0 0.0 0.0 16.290000149 0.0 0.0 0.0 29.1751946751" Properties=species:S:1:pos:R:3:initial_magmoms:R:1 pbc="T T T"
H       -1.18610749       0.51194583      -0.79846673       0.00000000
Si       1.33275007      -1.06953625      -1.62164485       0.00000000
H       -1.75708829       0.63337150       1.53260215       0.00000000
Si       1.29780802       1.67273867       1.17602292       0.00000000
Si      -0.69051682      -1.86165380       1.41978167       0.00000000
H       -0.55410436       2.17087058      -1.90271867       0.00000000
H        1.52236567      -1.07849575       2.54398945       0.00000000
Si      -3.06967134       1.09341739       0.92765449       0.00000000
H       -1.99303265       1.25998264      -2.45167913       0.00000000
Si       2.55549377       0.02902878       2.33051455       0.00000000
