10
Lattice="16.290000149 0.0 0.0 0.0 16.290000149 0.0 0.0 0.0 29.1751946751" Properties=species:S:1:pos:R:3:initial_magmoms:R:1 pbc="T T T"
Si       1.31719312      -1.26113923       1.47272298       0.00000000
Si      -0.85714723      -1.93637603      -1.04037577       0.00000000
Si      -1.42975702       1.37308411       1.28518191       0.00000000
Si       1.21375162       1.43521417      -1.44393582       0.00000000
Si       2.57142539      -2.66434355       0.10697669       0.00000000
Si       2.59178789       2.75258649      -0.05673992       0.00000000
Si      -0.06586047       2.77848759       2.60689409       0.00000000
Si       2.74553292       0.16570188      -2.64656652       0.00000000
Si      -0.09391185      -2.66577707       2.73085949       0.00000000
Si      -1.51109299      -1.51224958      -3.17180755       0.00000000
