10
Lattice="16.290000149 0.0 0.0 0.0 16.290000149 0.0 0.0 0.0 29.1751946751" Properties=species:S:1:pos:R:3:initial_magmoms:R:1 pbc="T T T"
Si       1.34135119       1.33275007      -1.37313054       0.00000000
Si      -1.43858620       1.37068948       1.23238940       0.00000000
Si       1.34200279      -1.34695495       1.38331268       0.00000000
Si      -1.38308617      -1.35034327      -1.34039597       0.00000000
Si      -0.15988635      -2.70803333       2.54468965       0.00000000
Si       2.70088202       2.64095111       0.01645481       0.00000000
Si      -0.01296684      -2.73766485      -2.65117912       0.00000000
Si      -2.81437446       0.05129721       2.58906513       0.00000000
Si       2.71469594      -0.02625948      -2.69415418       0.00000000
Si      -0.01550808       2.66747123      -2.75028725       0.00000000
