10
Lattice="16.290000149 0.0 0.0 0.0 16.290000149 0.0 0.0 0.0 29.1751946751" Properties=species:S:1:pos:R:3:initial_magmoms:R:1 pbc="T T T"
Si      -1.37790595      -1.36288657      -1.30696120       0.00000000
Si      -1.38435679       1.31502655       1.35842624       0.00000000
Si       1.33035544      -1.36625860       1.37488105       0.00000000
Si       1.32427927       1.38676771      -1.38156217       0.00000000
Si      -2.69535971       0.02785590      -2.64957448       0.00000000
Si      -0.01366731       2.67695201       2.68534327       0.00000000
Si       2.68905548      -0.00076563       2.70602848       0.00000000
Si      -0.05012433      -2.72150516      -2.67308969       0.00000000
Si       2.74897011       0.02676447      -2.65193767       0.00000000
Si       2.69566922      -2.71339274       0.02421541       0.00000000
