10
Lattice="16.290000149 0.0 0.0 0.0 16.290000149 0.0 0.0 0.0 29.1751946751" Properties=species:S:1:pos:R:3:initial_magmoms:R:1 pbc="T T T"
Si       0.68764978      -2.05021706      -0.76500278       0.00000000
Si      -0.61515928      -0.51552963       2.18145848       0.00000000
Si      -1.82060300       0.88834258      -1.14576825       0.00000000
Si       1.76638988       1.48341628      -0.33283062       0.00000000
H        1.37621179       0.26147079      -2.90371960       0.00000000
Si       0.16229727       1.52798572       3.05916504       0.00000000
Si      -2.84327292      -1.26301258      -1.53709513       0.00000000
Si       2.15125742       2.12810933       1.88964818       0.00000000
Si      -0.69957406       2.32917680      -2.69715922       0.00000000
Si       0.78809392       3.34288722      -1.22871332       0.00000000
