10
Lattice="16.290000149 0.0 0.0 0.0 16.290000149 0.0 0.0 0.0 29.1751946751" Properties=species:S:1:pos:R:3:initial_magmoms:R:1 pbc="T T T"
Si      -1.34392501      -1.32704857      -1.40738222       0.00000000
Si      -1.38570886       1.35026182       1.35437089       0.00000000
Si       1.35567010       1.34719930      -1.39337812       0.00000000
Si       1.39125219      -1.35570268       1.35098656       0.00000000
Si      -2.68410332      -2.67555107      -0.03477683       0.00000000
Si       2.66294261      -2.71678106      -0.07188768       0.00000000
Si      -2.71746524       2.66554901      -0.08810909       0.00000000
Si       0.02321325       2.71435385       2.67297299       0.00000000
Si       2.75016416       0.05541858       2.66363692       0.00000000
Si      -2.73678519      -0.03461625       2.70903353       0.00000000
