10
Lattice="16.290000149 0.0 0.0 0.0 16.290000149 0.0 0.0 0.0 29.1751946751" Properties=species:S:1:pos:R:3:initial_magmoms:R:1 pbc="T T T"
Si       1.30298824       1.47414727      -1.26933599       0.00000000
Si       1.36614457      -1.36643779       1.36892056       0.00000000
Si      -1.38552967       1.35451351       1.37072358       0.00000000
Si      -1.18208386      -1.51166314      -1.40755143       0.00000000
H       -1.18783423      -1.05946903      -3.12270278       0.00000000
Si       2.61350246       0.04197933      -2.55836699       0.00000000
Si      -2.59186609      -0.03661992      -2.78269506       0.00000000
Si      -2.70243283      -2.70176168       0.00292627       0.00000000
Si       2.71248050      -0.00335574       2.74168640       0.00000000
Si       0.01373247      -2.68006340       2.77427510       0.00000000
