10
Lattice="16.290000149 0.0 0.0 0.0 16.290000149 0.0 0.0 0.0 29.1751946751" Properties=species:S:1:pos:R:3:initial_magmoms:R:1 pbc="T T T"
Si       1.53284014       0.72141895       1.61155023       0.00000000
Si      -1.22077261      -1.32080950       1.49479110       0.00000000
Si       0.62349976      -1.07202862      -2.04669826       0.00000000
Si      -1.48589236       1.86784400      -0.35328243       0.00000000
H        1.86857705      -1.84489953       0.72252370       0.00000000
H        3.08583102       0.32378004      -1.00916998       0.00000000
Si      -1.87075991       1.22315095      -2.57576124       0.00000000
Si       0.29846538       2.56966607       2.27505251       0.00000000
Si       3.15556851       1.39973455       0.05210690       0.00000000
Si      -2.55300140       0.22535586       2.65319220       0.00000000
