10
Lattice="16.290000149 0.0 0.0 0.0 16.290000149 0.0 0.0 0.0 29.1751946751" Properties=species:S:1:pos:R:3:initial_magmoms:R:1 pbc="T T T"
Si       1.29125944      -1.41406975       1.35871799       0.00000000
Si      -1.33275007       1.06953625       1.62164485       0.00000000
Si       1.31962033       1.32685309      -1.44075864       0.00000000
Si      -1.40892211      -1.36409203      -1.31860210       0.00000000
H       -2.51885756       1.58148208       0.82317812       0.00000000
Si       2.71056154       0.02480967       2.52604671       0.00000000
Si      -2.02326689      -0.79211755       3.04142652       0.00000000
Si      -0.34634169      -2.47202381       2.79037397       0.00000000
H       -1.88685443       3.24040683      -0.28107383       0.00000000
Si       2.60796223       2.73673631      -0.12174809       0.00000000
