10
Lattice="16.290000149 0.0 0.0 0.0 16.290000149 0.0 0.0 0.0 29.1751946751" Properties=species:S:1:pos:R:3:initial_magmoms:R:1 pbc="T T T"
Si       1.34570877       1.21138941       1.48393793       0.00000000
Si       1.16982075      -1.58919393      -1.28939773       0.00000000
Si      -1.47746718      -1.30679049       1.37299633       0.00000000
Si      -0.28622833       1.82188323      -1.57233877       0.00000000
Si       2.48704645      -0.16315103      -2.63454925       0.00000000
Si       2.68068568       2.61732393       0.13096891       0.00000000
Si       0.64584312       1.00978925      -3.56792208       0.00000000
Si      -0.08482838       2.52456867       2.83180275       0.00000000
Si       2.53068736      -2.82765748       0.16770602       0.00000000
Si       2.62635853      -0.15912740       2.87178443       0.00000000
