10
Lattice="16.290000149 0.0 0.0 0.0 16.290000149 0.0 0.0 0.0 29.1751946751" Properties=species:S:1:pos:R:3:initial_magmoms:R:1 pbc="T T T"
Si      -1.31487457       1.43285864      -1.28090775       0.00000000
Si       1.31615268       1.38155003       1.36207314       0.00000000
Si      -1.39722052      -1.33810948       1.33246032       0.00000000
Si       1.28418844      -1.34519563      -1.45120336       0.00000000
Si      -2.63988689       0.09476463      -2.61691285       0.00000000
Si       2.65019292      -2.69874803      -0.08574590       0.00000000
Si      -0.02834890      -2.69529455       2.67256453       0.00000000
Si       2.66190543       0.01866834       2.71591887       0.00000000
Si       2.63988135       2.76410352      -0.00186721       0.00000000
Si       2.69606556       0.04039920      -2.71281463       0.00000000
