10
Lattice="16.290000149 0.0 0.0 0.0 16.290000149 0.0 0.0 0.0 29.1751946751" Properties=species:S:1:pos:R:3:initial_magmoms:R:1 pbc="T T T"
Si       1.36930483      -1.34187247       1.35346646       0.00000000
Si       1.37691226       1.35531172      -1.33246032       0.00000000
Si      -1.32035338       1.36834372       1.38372113       0.00000000
Si      -1.36643779      -1.36200691      -1.35256203       0.00000000
Si      -0.01974348      -2.70158249       2.66652527       0.00000000
Si      -0.00565263       2.71458843      -2.65462179       0.00000000
Si       2.72733698      -0.02125845      -2.68143379       0.00000000
Si      -2.68413590       0.01840770       2.73356987       0.00000000
Si      -2.71013474       2.71692442       0.05073566       0.00000000
Si       2.72157032      -2.71164971       0.00274247       0.00000000
