10
Lattice="16.290000149 0.0 0.0 0.0 16.290000149 0.0 0.0 0.0 29.1751946751" Properties=species:S:1:pos:R:3:initial_magmoms:R:1 pbc="T T T"
H        1.97750828      -0.09394443      -1.06486543       0.00000000
Si       1.01657746      -1.33934752       1.61782290       0.00000000
Si       0.76080817       1.87209569      -1.28055764       0.00000000
Si      -0.76778029      -2.04116960      -1.01051204       0.00000000
Si      -1.07088832       1.11011464       1.86855452       0.00000000
H       -1.22228758       1.24827013      -2.36164448       0.00000000
H       -3.01917234       0.03917745      -1.27953651       0.00000000
H       -1.87214456       1.67213594      -2.40590325       0.00000000
H        2.29193786      -0.78175711       2.54591501       0.00000000
Si      -1.01832049       3.41997150      -0.65022756       0.00000000
