10
Lattice="16.290000149 0.0 0.0 0.0 16.290000149 0.0 0.0 0.0 29.1751946751" Properties=species:S:1:pos:R:3:initial_magmoms:R:1 pbc="T T T"
Si       0.61318819      -1.30541056       0.44147905       0.00000000
Si      -1.51333938       1.46903221       0.63088441       0.00000000
H        2.01497528       0.34472898      -1.41301303       0.00000000
Si       1.10882773       1.24540309      -2.21996974       0.00000000
Si      -0.03321531       2.67318902      -0.75508321       0.00000000
Si      -2.83100427      -0.23179041      -0.50566447       0.00000000
Si      -1.61353592      -1.51755524      -2.11132131       0.00000000
Si      -0.22651245       1.62640990       2.65911477       0.00000000
Si      -0.23343570      -2.96805432      -0.95391217       0.00000000
Si       2.92068300      -1.21986037       0.08265333       0.00000000
