10
Lattice="16.290000149 0.0 0.0 0.0 16.290000149 0.0 0.0 0.0 29.1751946751" Properties=species:S:1:pos:R:3:initial_magmoms:R:1 pbc="T T T"
Si      -1.25235892       1.34182034       1.48851989       0.00000000
Si       1.35878149      -1.38291464       1.39862966       0.00000000
Si      -1.44599815      -1.43865462      -1.27699827       0.00000000
Si       1.52995681       1.35371204      -1.29222772       0.00000000
H       -0.64720171       1.17266498      -2.71921567       0.00000000
Si      -0.03751587      -2.61604696      -2.74923694       0.00000000
Si      -2.88292115       2.52193312       0.27039570       0.00000000
Si      -2.58733584      -0.06411418       2.84148891       0.00000000
Si       0.13550022       2.62395739       2.85757320       0.00000000
Si       3.73143630       0.99016811      -0.47984443       0.00000000
