10
Lattice="16.290000149 0.0 0.0 0.0 16.290000149 0.0 0.0 0.0 29.1751946751" Properties=species:S:1:pos:R:3:initial_magmoms:R:1 pbc="T T T"
Si       1.37035554       1.36868581       1.32467054       0.00000000
Si       1.38049280      -1.34709016      -1.34027927       0.00000000
Si      -1.32486571       1.38227167      -1.36131458       0.00000000
Si      -1.35146728      -1.35201788       1.37269291       0.00000000
Si      -2.68382639      -2.70655094      -0.01026967       0.00000000
Si      -2.69381216       0.03398094      -2.69958076       0.00000000
Si       0.00462636       2.71971326       2.67413999       0.00000000
Si       2.69858513       0.00752598       2.69858881       0.00000000
Si       2.70422147       0.03546333      -2.70421962       0.00000000
Si      -2.69017949       2.72940582      -0.01064895       0.00000000
