10
Lattice="10.86 0.0 0.0 0.0 10.86 0.0 0.0 0.0 10.86" Properties=species:S:1:pos:R:3:initial_magmoms:R:1 pbc="T T T"
Si       1.26237726      -1.17388998       1.39300134       0.00000000
Si      -1.45262274      -1.17388998      -1.32199866       0.00000000
Si      -1.45262274       1.54111002       1.39300134       0.00000000
Si       2.61987726      -2.53138998       0.03550134       0.00000000
Si      -0.09512274      -2.53138998      -2.67949866       0.00000000
Si      -0.09512274      -2.53138998       2.75050134       0.00000000
Si      -2.81012274      -2.53138998       0.03550134       0.00000000
Si       2.61987726       0.18361002       2.75050134       0.00000000
Si       2.65756146       0.11761380      -2.73501498       0.00000000
Si      -2.81012274       0.18361002      -2.67949866       0.00000000
