10
Lattice="10.86 0.0 0.0 0.0 10.86 0.0 0.0 0.0 10.86" Properties=species:S:1:pos:R:3:initial_magmoms:R:1 pbc="T T T"
Si       1.17733260      -1.24004910       1.46770728       0.00000000
Si       1.17733260       1.47495090      -1.24729272       0.00000000
Si      -1.53766740      -1.24004910      -1.24729272       0.00000000
Si       2.53483260      -2.59754910       0.11020728       0.00000000
Si       2.53483260       0.11745090      -2.60479272       0.00000000
Si      -0.18016740      -2.59754910      -2.60479272       0.00000000
Si       2.53483260       0.11745090       2.82520728       0.00000000
Si       2.53483260       2.83245090       0.11020728       0.00000000
Si      -0.18016740      -2.59754910       2.82520728       0.00000000
Si      -0.18016740       2.83245090      -2.60479272       0.00000000
