10
Lattice="10.86 0.0 0.0 0.0 10.86 0.0 0.0 0.0 10.86" Properties=species:S:1:pos:R:3:initial_magmoms:R:1 pbc="T T T"
Si      -1.17183744       1.28474886       1.51435098       0.00000000
Si       1.54316256       1.28474886      -1.20064902       0.00000000
Si       1.54316256      -1.43025114       1.51435098       0.00000000
Si      -2.54550798      -0.38908122      -2.39371776       0.00000000
Si      -2.52933744       2.64224886       0.15685098       0.00000000
Si       0.18566256       2.64224886      -2.55814902       0.00000000
Si      -2.52933744      -0.07275114       2.87185098       0.00000000
Si       2.90066256      -0.07275114      -2.55814902       0.00000000
Si       0.18566256       2.64224886       2.87185098       0.00000000
Si       2.90066256       2.64224886       0.15685098       0.00000000
