10
Lattice="16.290000149 0.0 0.0 0.0 16.290000149 0.0 0.0 0.0 29.1751946751" Properties=species:S:1:pos:R:3:initial_magmoms:R:1 pbc="T T T"
Si       1.32775882      -1.36101322       1.37418084       0.00000000
Si      -1.37020730      -1.36873468      -1.32496229       0.00000000
Si      -1.36585787       1.35122293       1.34885678       0.00000000
Si       1.36680595       1.36497169      -1.34509318       0.00000000
Si      -2.69502414       0.01475874      -2.68534327       0.00000000
Si       0.00973002      -2.71690324      -2.66600011       0.00000000
Si       2.68295651       0.00703728       2.71113414       0.00000000
Si      -0.02494976       2.71241534       2.70302344       0.00000000
Si       2.72679290       0.00987174      -2.69855963       0.00000000
Si      -2.70030210       2.72653877      -0.00568916       0.00000000
