10
Lattice="16.290000149 0.0 0.0 0.0 16.290000149 0.0 0.0 0.0 29.1751946751" Properties=species:S:1:pos:R:3:initial_magmoms:R:1 pbc="T T T"
Si      -0.68427775       2.04838770       0.77051689       0.00000000
Si       2.05684058      -0.61003770       0.88963921       0.00000000
Si      -1.24471891      -1.78386742       0.84581807       0.00000000
Si      -0.63830737      -0.67553653      -2.14726515       0.00000000
Si      -0.68163877      -2.81720729      -1.16452790       0.00000000
H        0.68826880       2.31425679      -2.14484361       0.00000000
Si      -1.30292308       1.53486173       2.95037074       0.00000000
Si      -3.53636355       0.78076505      -0.77185895       0.00000000
Si       1.53461575      -1.86518710       2.82197071       0.00000000
Si       1.07536807       3.54177346       0.43132608       0.00000000
