10
Lattice="16.290000149 0.0 0.0 0.0 16.290000149 0.0 0.0 0.0 29.1751946751" Properties=species:S:1:pos:R:3:initial_magmoms:R:1 pbc="T T T"
Si       1.03016332       1.10969110      -0.21268717       0.00000000
H       -0.52160580       1.54039870       1.81738123       0.00000000
Si      -2.22075056      -0.78913648      -1.12890498       0.00000000
Si      -0.97344154       0.25576929       2.48003742       0.00000000
Si       1.03892734      -1.10944675       2.40193543       0.00000000
Si      -0.54136558      -2.46497024      -1.37473517       0.00000000
Si      -0.18215478      -2.69915528       0.98760952       0.00000000
Si       2.19548314       0.94933234       1.80725743       0.00000000
Si       2.51913612       0.03420900      -1.63681595       0.00000000
Si      -0.23166009       2.74986606      -1.36948364       0.00000000
