10
Lattice="16.290000149 0.0 0.0 0.0 16.290000149 0.0 0.0 0.0 29.1751946751" Properties=species:S:1:pos:R:3:initial_magmoms:R:1 pbc="T T T"
Si      -1.33797916       1.15411393       1.55696927       0.00000000
Si      -1.30857571      -1.44660088      -1.37017801       0.00000000
Si       1.42728094      -1.36708939       1.33455218       0.00000000
Si       0.83421091       1.99765901      -1.09133025       0.00000000
H        1.91321165       0.28365777      -1.88013124       0.00000000
Si      -0.91186534       3.53999622      -0.63969532       0.00000000
Si      -2.74422972       2.51802677       0.30271598       0.00000000
Si      -2.70720254      -0.02169828      -2.59474845       0.00000000
Si       0.08417043       2.61384455       2.78197735       0.00000000
Si      -2.63497268      -2.82914949       0.00598383       0.00000000
