10
Lattice="16.290000149 0.0 0.0 0.0 16.290000149 0.0 0.0 0.0 29.1751946751" Properties=species:S:1:pos:R:3:initial_magmoms:R:1 pbc="T T T"
Si      -1.37192752      -1.40626684      -1.31241112       0.00000000
Si      -1.34644996       1.27925371       1.46059777       0.00000000
Si       1.33959187      -1.33644790       1.42191146       0.00000000
Si       1.34140006       1.41815854      -1.36024969       0.00000000
Si       2.67198356      -0.02210553      -2.67436464       0.00000000
Si       0.05963769      -2.77811292      -2.59695118       0.00000000
Si      -2.68092677      -2.69578325       0.15810038       0.00000000
Si      -2.77959531       2.59880888       0.17747271       0.00000000
Si      -2.72085356      -0.04390155      -2.68881803       0.00000000
Si       2.68814324       2.75113668       0.02870839       0.00000000
