10
Lattice="16.290000149 0.0 0.0 0.0 16.290000149 0.0 0.0 0.0 29.1751946751" Properties=species:S:1:pos:R:3:initial_magmoms:R:1 pbc="T T T"
Si      -0.92108548       0.88614343      -0.80631486       0.00000000
Si       0.90386695      -1.56973699       1.49447017       0.00000000
H       -2.01173357      -0.34371900       1.41143757       0.00000000
Si       1.92792152       0.57282157       1.89673776       0.00000000
Si       1.88019182      -1.97336084      -0.65755054       0.00000000
Si      -1.40253643      -1.65132546       1.85218723       0.00000000
Si      -2.22594707      -0.57549313      -2.09110290       0.00000000
Si       0.41187636       2.17912961      -2.21320109       0.00000000
Si      -2.04905396       2.32973066       0.65372859       0.00000000
Si       3.04655583       1.99980929       0.34327534       0.00000000
