10
Lattice="16.290000149 0.0 0.0 0.0 16.290000149 0.0 0.0 0.0 29.1751946751" Properties=species:S:1:pos:R:3:initial_magmoms:R:1 pbc="T T T"
Si      -1.51527952      -1.34143264       1.16263151       0.00000000
Si       1.39437514      -1.34557030      -1.31095820       0.00000000
Si      -1.33369489       1.29513646      -1.43194773       0.00000000
Si       1.32434443       1.30565980       1.43293969       0.00000000
H       -0.86812669      -2.17883639       2.24473948       0.00000000
H       -1.82386100       3.10344051       0.87686048       0.00000000
Si      -0.01599678      -2.70832655      -2.62179969       0.00000000
Si       2.67722894       2.68960934       0.08078611       0.00000000
Si       2.74082511      -2.64878660       0.12151469       0.00000000
Si       2.72464913       0.01668096      -2.67909978       0.00000000
