10
Lattice="16.290000149 0.0 0.0 0.0 16.290000149 0.0 0.0 0.0 29.1751946751" Properties=species:S:1:pos:R:3:initial_magmoms:R:1 pbc="T T T"
Si       1.32366025      -1.39077179      -1.36431963       0.00000000
Si      -1.41143077      -1.28447466       1.38284588       0.00000000
Si       1.41037192       1.36275625       1.31084150       0.00000000
Si      -1.34581465       1.32064660      -1.42214486       0.00000000
Si       0.01599678       2.70832655       2.62179969       0.00000000
Si      -2.64385073      -2.70871751      -0.04860587       0.00000000
Si       2.58357773      -2.78096367       0.06841583       0.00000000
Si      -2.73453716       2.68863194      -0.12641612       0.00000000
Si       2.68897403      -0.02876814      -2.73998841       0.00000000
Si       2.74064592       2.72500751      -0.05730008       0.00000000
