10
Lattice="16.290000149 0.0 0.0 0.0 16.290000149 0.0 0.0 0.0 29.1751946751" Properties=species:S:1:pos:R:3:initial_magmoms:R:1 pbc="T T T"
Si       1.37101528      -1.34571691      -1.33820783       0.00000000
Si       1.37834578       1.33506325       1.34407204       0.00000000
Si      -1.35032698      -1.36337527       1.35699665       0.00000000
Si      -1.34594497       1.35927019      -1.36855003       0.00000000
Si      -0.00226431       2.69920415       2.65508859       0.00000000
Si      -0.01462842      -2.69599502      -2.66282002       0.00000000
Si      -2.72433962      -0.00677664       2.68890264       0.00000000
Si       2.74165590       0.01277136      -2.67589051       0.00000000
Si      -2.69278589       0.00231318      -2.73091492       0.00000000
Si       2.73499329       2.69104286      -0.01280791       0.00000000
