10
Lattice="16.290000149 0.0 0.0 0.0 16.290000149 0.0 0.0 0.0 29.1751946751" Properties=species:S:1:pos:R:3:initial_magmoms:R:1 pbc="T T T"
H       -0.59919508      -0.09454716      -1.40008842       0.00000000
Si      -1.71698231       0.44235495       1.52417052       0.00000000
Si       0.47688975      -2.02992950       1.05876781       0.00000000
H        1.51765786      -0.84717775      -1.70768249       0.00000000
Si       1.89775244       1.49911984       0.31873900       0.00000000
Si       0.79123789      -0.92092258      -3.02847273       0.00000000
Si      -2.56311749       2.28713231       0.39972934       0.00000000
Si      -0.33852249       1.47044944       3.15701864       0.00000000
Si       2.07115949      -1.21683043       2.62002001       0.00000000
Si       0.92593990       2.95406121       1.83033501       0.00000000
