10
Lattice="16.290000149 0.0 0.0 0.0 16.290000149 0.0 0.0 0.0 29.1751946751" Properties=species:S:1:pos:R:3:initial_magmoms:R:1 pbc="T T T"
Si       1.36544410       1.35886294       1.32951362       0.00000000
Si       1.37401264      -1.35659863      -1.33190599       0.00000000
Si      -1.34161183       1.38162007      -1.34415957       0.00000000
Si      -1.37256283      -1.33832125       1.36218984       0.00000000
Si      -0.04227255       2.70749576       2.63510358       0.00000000
Si       0.00112401      -2.70492194      -2.67463597       0.00000000
Si      -2.68871339       0.01961316      -2.69403748       0.00000000
Si       2.71834490      -0.00845451       2.67854545       0.00000000
Si      -0.02282229      -2.71285517       2.69654654       0.00000000
Si       2.72433962       0.00677664      -2.68890264       0.00000000
