10
Lattice="16.290000149 0.0 0.0 0.0 16.290000149 0.0 0.0 0.0 29.1751946751" Properties=species:S:1:pos:R:3:initial_magmoms:R:1 pbc="T T T"
Si       1.53745021      -1.27177660      -1.19840030       0.00000000
Si       1.39536883       1.32160771       1.36523281       0.00000000
Si      -1.21697704      -1.43439967       1.44264627       0.00000000
Si      -1.47168748       1.20935332      -1.45461686       0.00000000
H        0.35627859      -1.81020998      -2.25010771       0.00000000
Si      -2.67107132       2.68236029      -0.02538242       0.00000000
Si       2.85472609       2.50030325      -0.05166927       0.00000000
Si      -2.64854225      -0.06255360       2.72718633       0.00000000
Si      -0.14081076       2.54049068      -2.85441352       0.00000000
Si       0.06478533       2.76187179       2.67934777       0.00000000
