10
Lattice="16.290000149 0.0 0.0 0.0 16.290000149 0.0 0.0 0.0 29.1751946751" Properties=species:S:1:pos:R:3:initial_magmoms:R:1 pbc="T T T"
Si       1.24937785      -1.37039626       1.41348275       0.00000000
Si      -1.28734984       1.44893035       1.32836704       0.00000000
Si       1.90778708       0.79032565      -1.12213926       0.00000000
Si      -1.83901070      -0.88151707      -1.18630426       0.00000000
H        0.69514318      -1.82827559      -1.92156001       0.00000000
Si       1.25493274       1.21391452      -3.25402033       0.00000000
Si       2.66908394       0.05857884       2.64940526       0.00000000
Si      -2.71464707       0.05826933       2.60990205       0.00000000
Si       2.74729224      -2.60618662       0.13352320       0.00000000
Si      -3.47208321       0.85392181      -1.27024917       0.00000000
