10
Lattice="16.290000149 0.0 0.0 0.0 16.290000149 0.0 0.0 0.0 29.1751946751" Properties=species:S:1:pos:R:3:initial_magmoms:R:1 pbc="T T T"
Si       1.71836696      -1.63064530      -0.10380534       0.00000000
Si      -2.05739444      -1.00851391      -0.72313638       0.00000000
Si       1.39444030       1.73838737      -0.91540091       0.00000000
Si      -1.00755280       1.24030432       1.84305540       0.00000000
H        0.79648327      -1.46720773      -2.64467305       0.00000000
H       -0.60554818       0.56264032      -3.10356968       0.00000000
Si      -2.36349820       2.64863999       0.52915051       0.00000000
Si       2.15692634      -1.87851395       2.17968259       0.00000000
Si      -3.47166782       0.94112218      -0.71966453       0.00000000
Si       3.58831236      -0.73389709      -1.38080361       0.00000000
