10
Lattice="16.290000149 0.0 0.0 0.0 16.290000149 0.0 0.0 0.0 29.1751946751" Properties=species:S:1:pos:R:3:initial_magmoms:R:1 pbc="T T T"
Si       1.41190807       1.39049812      -1.25676236       0.00000000
Si       1.36564447      -1.34799751       1.37219693       0.00000000
Si      -1.28151590       1.34522821       1.45639654       0.00000000
Si      -1.39063985      -1.28681227      -1.43493235       0.00000000
Si      -2.69367696      -2.64070676      -0.00064185       0.00000000
Si      -2.59829901       2.78047334       0.18039023       0.00000000
Si       0.13308441       2.76381192      -2.64418874       0.00000000
Si       2.74164449       0.07610688      -2.67651485       0.00000000
Si       2.71743755      -2.71723718       0.01336224       0.00000000
Si       2.71323473       2.71756950       0.16895355       0.00000000
