10
Lattice="16.290000149 0.0 0.0 0.0 16.290000149 0.0 0.0 0.0 29.1751946751" Properties=species:S:1:pos:R:3:initial_magmoms:R:1 pbc="T T T"
Si       0.84940948      -1.87489757      -1.11498841       0.00000000
Si       1.48765168       1.25234263       1.37511445       0.00000000
Si      -1.38942298       1.31507542      -1.42938031       0.00000000
Si      -1.31098663      -1.36673101       1.48583431       0.00000000
H        1.38357487      -1.61639155      -2.50086851       0.00000000
H        2.65658951       0.14131575      -2.06881305       0.00000000
Si       0.00602730       2.55129079       2.71472269       0.00000000
Si      -2.79751431       2.49624704       0.04043682       0.00000000
H       -0.21600540      -0.77403565      -3.67082299       0.00000000
Si       2.54005085      -2.80368822       0.19544463       0.00000000
