10
Lattice="16.290000149 0.0 0.0 0.0 16.290000149 0.0 0.0 0.0 29.1751946751" Properties=species:S:1:pos:R:3:initial_magmoms:R:1 pbc="T T T"
Si       1.41599197       1.39657429       1.16875830       0.00000000
Si       1.41931513      -1.32437701      -1.29111907       0.00000000
Si      -1.33302700       1.43435080      -1.27483931       0.00000000
Si      -1.35575155      -1.32046741       1.37318889       0.00000000
Si       0.04214223      -2.66569562      -2.62007836       0.00000000
Si      -2.68255577       0.07477110      -2.62524237       0.00000000
Si       2.75579562       0.12025278       2.56309920       0.00000000
Si      -2.59092452       0.10814931       2.75297137       0.00000000
Si      -2.72220563      -2.66418065       0.04883928       0.00000000
Si       0.05468553       2.79534774      -2.59169089       0.00000000
