10
Lattice="16.290000149 0.0 0.0 0.0 16.290000149 0.0 0.0 0.0 29.1751946751" Properties=species:S:1:pos:R:3:initial_magmoms:R:1 pbc="T T T"
Si       1.35514882       1.01232577      -1.63206039       0.00000000
Si       1.43617528      -1.62501011       0.92721686       0.00000000
Si      -1.83259244      -1.19043574      -1.00386010       0.00000000
Si      -0.11104893       1.73740997       1.80174332       0.00000000
H       -2.25380297       1.48227598       0.49116440       0.00000000
Si       2.77700520       2.29110707      -0.22949208       0.00000000
Si       0.62719759       0.41138766       3.59207914       0.00000000
Si       2.62405838      -0.47661282       2.62077856       0.00000000
Si      -2.90095581       2.31967973      -0.59094357       0.00000000
Si       0.14820642      -3.06209649       2.20908739       0.00000000
