10
Lattice="16.290000149 0.0 0.0 0.0 16.290000149 0.0 0.0 0.0 29.1751946751" Properties=species:S:1:pos:R:3:initial_magmoms:R:1 pbc="T T T"
Si       1.44081793      -0.28968507      -0.44334626       0.00000000
Si      -1.98444782       0.08775423       1.05795091       0.00000000
Si      -1.22750038       1.95611951      -0.23022146       0.00000000
Si       0.64953118       2.66523950       1.04908165       0.00000000
Si       1.08160714      -0.05550003      -2.80569095       0.00000000
Si      -0.59777785       1.62033373      -2.55986076       0.00000000
Si       1.88825537      -2.42333300       0.44783924       0.00000000
Si      -0.96057244      -1.24861222       2.67586133       0.00000000
Si       2.66190005       1.30002346       0.97097965       0.00000000
H        1.62297271       2.40947021      -1.43095577       0.00000000
