10
Lattice="16.290000149 0.0 0.0 0.0 16.290000149 0.0 0.0 0.0 29.1751946751" Properties=species:S:1:pos:R:3:initial_magmoms:R:1 pbc="T T T"
Si      -1.35935164      -1.36420606       1.34191308       0.00000000
Si      -1.35977518       1.35269066      -1.35329140       0.00000000
Si       1.33182154       1.35478881       1.38337103       0.00000000
Si       1.35083197      -1.36060597      -1.36020593       0.00000000
Si       2.68330511       2.70614369       0.00994874       0.00000000
Si      -2.71208954       0.02107926       2.67743679       0.00000000
Si       0.02764413      -2.70658352       2.68919439       0.00000000
Si      -2.70687674      -0.03476286      -2.69252037       0.00000000
Si       2.66364308      -0.01150074       2.75571384       0.00000000
Si      -0.01027899       2.74092285      -2.68823161       0.00000000
