10
Lattice="16.290000149 0.0 0.0 0.0 16.290000149 0.0 0.0 0.0 29.1751946751" Properties=species:S:1:pos:R:3:initial_magmoms:R:1 pbc="T T T"
Si       1.83236438       1.02196945      -0.94241130       0.00000000
Si       1.40625055      -1.36391284       1.25425329       0.00000000
Si      -1.32045112       1.48881847       1.20858244       0.00000000
Si      -1.30424257      -1.18415269      -1.55327832       0.00000000
Si       0.99862588       2.26624201      -2.65592300       0.00000000
Si      -2.67033827       0.09378153       2.51934808       0.00000000
Si      -2.62560593      -2.58740588      -0.21034732       0.00000000
Si       0.05051529      -2.70446582       2.56955859       0.00000000
Si       2.74422972      -2.51802677      -0.30271598       0.00000000
Si       2.82840015       0.09581778       2.47926136       0.00000000
