10
Lattice="16.290000149 0.0 0.0 0.0 16.290000149 0.0 0.0 0.0 29.1751946751" Properties=species:S:1:pos:R:3:initial_magmoms:R:1 pbc="T T T"
Si      -1.33490866      -1.37705887      -1.34485977       0.00000000
Si       1.34216406      -1.35865117       1.36321097       0.00000000
Si       1.33124976       1.35754345      -1.38302093       0.00000000
Si      -1.38667160       1.36133902       1.32399951       0.00000000
Si      -2.66481759       0.03176550      -2.65587632       0.00000000
Si      -0.03362093       2.71318097       2.68651028       0.00000000
Si       2.68926563       0.00335574       2.71308888       0.00000000
Si       2.69113898       2.71207325      -0.02943777       0.00000000
Si       2.70215102      -2.71375112       0.00974452       0.00000000
Si      -2.72494398       0.00291591       2.70261498       0.00000000
