10
Lattice="16.290000149 0.0 0.0 0.0 16.290000149 0.0 0.0 0.0 29.1751946751" Properties=species:S:1:pos:R:3:initial_magmoms:R:1 pbc="T T T"
Si       0.17901081      -1.38747470      -0.61066600       0.00000000
Si      -0.69514318       1.82827559       1.92156001       0.00000000
Si      -0.51153858       1.28229994      -2.39618791       0.00000000
Si      -2.53415387       0.94675852       0.73525575       0.00000000
Si      -2.45100971       0.25462899      -1.49467440       0.00000000
Si       1.21264390       2.61860123       0.79942076       0.00000000
Si       2.05214906      -0.77791104       2.05508321       0.00000000
Si       1.01274931      -2.63174726       1.10284570       0.00000000
Si       2.91789741       0.95006539       0.67250954       0.00000000
Si       2.07446636      -1.37095827      -1.94966156       0.00000000
