10
Lattice="16.290000149 0.0 0.0 0.0 16.290000149 0.0 0.0 0.0 29.1751946751" Properties=species:S:1:pos:R:3:initial_magmoms:R:1 pbc="T T T"
Si      -0.47688975       2.02992950      -1.05876781       0.00000000
Si       1.59426973       0.81309907       1.56125219       0.00000000
Si       1.29676546      -1.50066739      -1.32105281       0.00000000
Si      -1.86994541      -0.89674822       1.27699827       0.00000000
H       -2.79182910      -0.73331065      -1.26386943       0.00000000
H        1.04076811       1.18275175      -2.76645031       0.00000000
H       -1.07608483       1.93538234      -2.45885623       0.00000000
Si      -2.19387206       2.47228445       0.46540271       0.00000000
Si       2.22430178      -2.54451431       0.51298745       0.00000000
Si       3.29562993      -0.78462415       1.57671505       0.00000000
