10
Lattice="16.290000149 0.0 0.0 0.0 16.290000149 0.0 0.0 0.0 29.1751946751" Properties=species:S:1:pos:R:3:initial_magmoms:R:1 pbc="T T T"
Si      -1.36907677       1.34718301      -1.34220483       0.00000000
Si      -1.37505520      -1.34281729       1.34156298       0.00000000
Si       1.35511624      -1.35298225      -1.36577839       0.00000000
Si       1.35801586       1.36216981       1.35784274       0.00000000
Si       0.01049076       2.69161301      -2.67659071       0.00000000
Si      -0.01247814      -2.73753452       2.64531490       0.00000000
Si       2.71808426      -2.69254154      -0.00195474       0.00000000
Si       2.71070489       0.01769094      -2.71198022       0.00000000
Si      -2.72898227       0.02363679       2.69435840       0.00000000
Si      -2.72995967      -2.69656517      -0.01808862       0.00000000
