10
Lattice="16.290000149 0.0 0.0 0.0 16.290000149 0.0 0.0 0.0 29.1751946751" Properties=species:S:1:pos:R:3:initial_magmoms:R:1 pbc="T T T"
Si      -1.36763185       1.24146091      -1.44501822       0.00000000
Si       1.20041011      -1.39440772      -1.48043690       0.00000000
Si      -1.36894482      -1.42335505       1.30118451       0.00000000
Si       1.43106022       1.40900356       1.31807694       0.00000000
Si      -0.07034022       2.74853028       2.56566662       0.00000000
Si       0.06234183      -2.63720441       2.68461389       0.00000000
Si       2.52327215      -2.78780547      -0.18231579       0.00000000
Si      -2.77107564       2.55943595      -0.13111332       0.00000000
Si       2.72815148       2.64424169      -0.17989425       0.00000000
Si      -0.03862359       2.63743247      -2.79142428       0.00000000
