10
Lattice="16.290000149 0.0 0.0 0.0 16.290000149 0.0 0.0 0.0 29.1751946751" Properties=species:S:1:pos:R:3:initial_magmoms:R:1 pbc="T T T"
Si      -1.41640248       1.22347675      -1.37739012       0.00000000
Si      -1.31207643      -1.48843360       1.27046303       0.00000000
Si       1.50140044      -1.33952671      -1.24758967       0.00000000
Si       0.66396412       1.87750397       1.29736256       0.00000000
Si       0.05279589       2.60069852      -2.59384986       0.00000000
Si       0.24896007      -2.56585421       2.63740842       0.00000000
Si      -2.75794590       2.52501518       0.04635938       0.00000000
Si       0.07034022      -2.74853028      -2.56566662       0.00000000
Si      -2.70073541      -0.18909432      -2.69677994       0.00000000
Si      -0.98758126       3.53064576       1.20111359       0.00000000
