10
Lattice="16.290000149 0.0 0.0 0.0 16.290000149 0.0 0.0 0.0 29.1751946751" Properties=species:S:1:pos:R:3:initial_magmoms:R:1 pbc="T T T"
Si      -0.84613519       1.84477736      -1.12444118       0.00000000
Si       1.71698231      -0.44235495      -1.52417052       0.00000000
Si       1.37845981       1.02809449       1.63284812       0.00000000
Si      -1.39444030      -1.73838737       0.91540091       0.00000000
H        1.11778723      -0.53690211      -2.92425894       0.00000000
H       -1.99998848      -1.17574705      -2.18816878       0.00000000
Si       2.19387206      -2.47228445      -0.46540271       0.00000000
Si       0.32392665      -3.36903267       0.81159557       0.00000000
Si       2.64292220       2.51170625       0.30616449       0.00000000
Si      -2.56684790       2.60335379       0.25446605       0.00000000
