10
Lattice="16.290000149 0.0 0.0 0.0 16.290000149 0.0 0.0 0.0 29.1751946751" Properties=species:S:1:pos:R:3:initial_magmoms:R:1 pbc="T T T"
Si      -1.36125757      -1.36244674       1.34357607       0.00000000
Si       1.35490447       1.35374788       1.35965160       0.00000000
Si       1.36966321      -1.37860642      -1.32256992       0.00000000
Si      -1.38333052       1.33840270      -1.35025718       0.00000000
Si      -0.01958058       2.69975801      -2.68020843       0.00000000
Si       2.71748153      -0.04096935       2.66340352       0.00000000
Si      -0.00364896      -2.70521516      -2.68633522       0.00000000
Si      -2.73626391      -0.00037467       2.67889555       0.00000000
Si      -0.01156590      -2.74084140       2.68405956       0.00000000
Si       2.72995967       2.69656517       0.01808862       0.00000000
