10
Lattice="16.290000149 0.0 0.0 0.0 16.290000149 0.0 0.0 0.0 29.1751946751" Properties=species:S:1:pos:R:3:initial_magmoms:R:1 pbc="T T T"
Si      -1.28433293      -1.41257107      -1.31938983       0.00000000
Si       1.41640248      -1.22347675       1.37739012       0.00000000
Si      -1.34154341       1.30153843       1.42374950       0.00000000
Si       1.46919837       1.37722177      -1.21645974       0.00000000
Si       2.08036660       0.65402722       2.67475267       0.00000000
Si       0.42882122       2.30716901       2.57850371       0.00000000
Si      -2.61033895      -0.04152321      -2.65371736       0.00000000
Si       0.12046455       2.73044837      -2.60134788       0.00000000
Si      -2.61191908      -2.73670374       0.11859717       0.00000000
Si       0.10432605      -2.71191035       2.64785314       0.00000000
