10
Lattice="16.290000149 0.0 0.0 0.0 16.290000149 0.0 0.0 0.0 29.1751946751" Properties=species:S:1:pos:R:3:initial_magmoms:R:1 pbc="T T T"
Si      -1.66961913      -0.78431464       1.44738141       0.00000000
Si       1.10816961       1.70751782       1.24881503       0.00000000
Si      -0.52529549       0.67642597      -2.23123136       0.00000000
Si       1.41427338      -1.94963609      -0.00347185       0.00000000
H       -2.85079075      -1.32274801       0.39567399       0.00000000
Si       2.46411502       0.29918214       2.56271993       0.00000000
Si       0.89794553      -2.86019823      -2.09629609       0.00000000
Si       3.47166782      -0.94112218       0.71966453       0.00000000
Si      -0.52974266      -2.28564992       2.83075769       0.00000000
H        2.86611964      -0.37848186      -2.38390516       0.00000000
