10
Lattice="16.290000149 0.0 0.0 0.0 16.290000149 0.0 0.0 0.0 29.1751946751" Properties=species:S:1:pos:R:3:initial_magmoms:R:1 pbc="T T T"
H       -1.18117162      -0.53843337      -1.05170742       0.00000000
Si      -1.53745021       1.27177660       1.19840030       0.00000000
Si       1.13987647      -1.50133528       1.38337628       0.00000000
Si       1.66961913       0.78431464      -1.44738141       0.00000000
Si      -2.47814885      -1.08789508      -1.97373109       0.00000000
Si       3.08389251      -1.16532145      -1.45085326       0.00000000
Si      -0.14208138       2.59338431       2.56363311       0.00000000
Si       2.64626003      -0.11627802       2.55099441       0.00000000
Si       2.77778874       2.49183245      -0.19856637       0.00000000
Si       2.40287439      -2.92882800       0.05630813       0.00000000
