10
Lattice="16.290000149 0.0 0.0 0.0 16.290000149 0.0 0.0 0.0 29.1751946751" Properties=species:S:1:pos:R:3:initial_magmoms:R:1 pbc="T T T"
Si      -1.30899925      -1.28951641       1.47051150       0.00000000
Si      -1.34892604       1.36236529      -1.37640691       0.00000000
Si       1.43156521      -1.37184607      -1.28454006       0.00000000
Si       1.37192752       1.40626684       1.31241112       0.00000000
Si      -2.62106102      -2.64953594       0.12499529       0.00000000
Si       2.64854225       0.06255360      -2.72718633       0.00000000
Si       2.74638000      -2.63552654       0.18826461       0.00000000
Si      -2.71236647       2.71011845       0.01422291       0.00000000
Si       2.71151939       0.06981894       2.73432259       0.00000000
Si      -2.73766484      -0.01635516      -2.71852130       0.00000000
