10
Lattice="16.290000149 0.0 0.0 0.0 16.290000149 0.0 0.0 0.0 29.1751946751" Properties=species:S:1:pos:R:3:initial_magmoms:R:1 pbc="T T T"
Si      -1.02982123       1.48766797       1.47290970       0.00000000
Si       0.91676863       1.83666494      -1.16770799       0.00000000
Si      -1.34016202      -1.45758034      -1.29275288       0.00000000
Si       1.50353443      -1.30958569       1.29578710       0.00000000
H       -1.91249489       2.34092189       0.58575038       0.00000000
H        2.76558591      -1.01126692      -1.31136665       0.00000000
Si       2.31375017      -2.29589633      -0.64871045       0.00000000
Si       0.43671861      -3.00501633      -1.92801356       0.00000000
Si       0.86727961       2.78977656       2.10484442       0.00000000
Si       2.47927286       2.61612515       0.42517011       0.00000000
