10
Lattice="16.290000149 0.0 0.0 0.0 16.290000149 0.0 0.0 0.0 29.1751946751" Properties=species:S:1:pos:R:3:initial_magmoms:R:1 pbc="T T T"
Si       1.33032286      -1.41932165      -1.28636351       0.00000000
Si      -1.34881201      -1.37349951       1.33744927       0.00000000
Si       1.38564370       1.35027811       1.32461219       0.00000000
Si      -1.30015378       1.34952877      -1.41873137       0.00000000
Si       2.66387114      -0.07913682      -2.61515067       0.00000000
Si       0.01462842       2.69599502       2.66282002       0.00000000
Si      -2.67815747       2.69830820      -0.06809490       0.00000000
Si      -2.70858719      -0.01570356       2.67708669       0.00000000
Si      -2.72864018      -0.05444118      -2.66141086       0.00000000
Si       0.03323160      -2.73548199       2.65765601       0.00000000
