10
Lattice="16.290000149 0.0 0.0 0.0 16.290000149 0.0 0.0 0.0 29.1751946751" Properties=species:S:1:pos:R:3:initial_magmoms:R:1 pbc="T T T"
Si       0.68427775      -2.04838770      -0.77051689       0.00000000
Si      -0.61864534      -0.51352596       2.17985385       0.00000000
Si      -1.82803124       0.87493591      -1.14010826       0.00000000
Si       1.75964582       1.49338576      -0.33919081       0.00000000
H        1.37254654       0.26586909      -2.91536050       0.00000000
Si       0.15206715       1.53337771       3.05618917       0.00000000
Si      -2.85208581      -1.26762265      -1.54237584       0.00000000
Si       2.14355225       2.13262166       1.88553448       0.00000000
Si      -0.70939693       2.30192363      -2.69357067       0.00000000
Si       0.77004460       3.34764390      -1.23778681       0.00000000
