10
Lattice="16.290000149 0.0 0.0 0.0 16.290000149 0.0 0.0 0.0 29.1751946751" Properties=species:S:1:pos:R:3:initial_magmoms:R:1 pbc="T T T"
Si      -1.31536864      -1.39364209       1.33587381       0.00000000
Si       1.36451557       1.29622789       1.38739721       0.00000000
Si       1.38605095      -1.35203743      -1.31078315       0.00000000
Si      -1.35130438       1.34728075      -1.36379447       0.00000000
Si      -0.01482390       2.79191055       2.49042379       0.00000000
Si       0.00661374      -2.71295291      -2.63810863       0.00000000
Si       2.73782775       0.02897991      -2.64805737       0.00000000
Si      -2.83462293      -0.13800888       2.56662940       0.00000000
Si       2.74297539      -2.67209759       0.08872177       0.00000000
Si       0.00057015       2.70583418      -2.71340981       0.00000000
