10
Lattice="16.290000149 0.0 0.0 0.0 16.290000149 0.0 0.0 0.0 29.1751946751" Properties=species:S:1:pos:R:3:initial_magmoms:R:1 pbc="T T T"
Si       1.72512731       0.94032397       1.27579246       0.00000000
Si      -0.86574835      -1.72797643       1.38257367       0.00000000
Si       0.73006894      -0.63337150      -2.17996267       0.00000000
Si      -1.70525351       1.66853585       0.12691122       0.00000000
H       -2.91789741      -0.95006539      -0.67250954       0.00000000
Si       0.46705059       2.34114995       2.64068684       0.00000000
Si      -2.36366273      -0.49218606       2.66253323       0.00000000
Si      -0.84343105      -2.32102366      -2.62217109       0.00000000
Si       2.97585723      -1.13951809      -1.90268162       0.00000000
Si      -2.35810784       2.09212472      -2.00496985       0.00000000
