10
Lattice="16.290000149 0.0 0.0 0.0 16.290000149 0.0 0.0 0.0 29.1751946751" Properties=species:S:1:pos:R:3:initial_magmoms:R:1 pbc="T T T"
Si      -1.32497974      -1.33622994      -1.33732090       0.00000000
Si       1.31678310      -1.43524512       1.27600631       0.00000000
Si      -1.44267499       1.33159511       1.28274578       0.00000000
Si       1.29916732       1.29036512      -1.47223576       0.00000000
Si       2.63084643      -0.05135260       2.63988831       0.00000000
Si      -0.07390773       2.68030938       2.62054516       0.00000000
Si      -2.74186766       0.00676361      -2.59200015       0.00000000
Si       2.66141461       2.68553847      -0.15389915       0.00000000
Si      -0.15099201       2.67506400      -2.69878136       0.00000000
Si      -0.08156403      -2.76993371       2.61077147       0.00000000
