10
Lattice="16.290000149 0.0 0.0 0.0 16.290000149 0.0 0.0 0.0 29.1751946751" Properties=species:S:1:pos:R:3:initial_magmoms:R:1 pbc="T T T"
Si       1.32141223       1.32579424      -1.36558058       0.00000000
Si      -1.25807671       1.40082598       1.36489438       0.00000000
Si      -1.72512731      -0.94032397      -1.27579246       0.00000000
Si       1.45015934      -1.38469888       1.22654561       0.00000000
Si      -3.43038081       0.72821188      -1.14888124       0.00000000
Si      -2.57289149       2.66450645      -0.10791029       0.00000000
Si      -2.59087565      -2.66830040       0.10678121       0.00000000
Si       2.58441015      -0.10169847      -2.69264874       0.00000000
Si      -2.66908394      -0.00353493       2.62266328       0.00000000
Si       2.81240662       0.01047447       2.54488221       0.00000000
