10
Lattice="16.290000149 0.0 0.0 0.0 16.290000149 0.0 0.0 0.0 29.1751946751" Properties=species:S:1:pos:R:3:initial_magmoms:R:1 pbc="T T T"
Si      -1.34617303       1.34478838      -1.36563251       0.00000000
Si      -1.35558865      -1.37067319       1.34620183       0.00000000
Si       1.35749458       1.34807896       1.36770395       0.00000000
Si       1.34368066      -1.30316743      -1.42409960       0.00000000
Si      -2.76832263      -0.11494224      -2.59064059       0.00000000
Si       0.11407887       2.78178273      -2.58038842       0.00000000
Si      -2.70021413       2.67392207       0.03538951       0.00000000
Si       2.69202026      -2.68793147      -0.06193894       0.00000000
Si       0.00737937      -2.71023248       2.71002548       0.00000000
Si      -2.71070489      -0.01769094       2.71198022       0.00000000
