10
Lattice="16.290000149 0.0 0.0 0.0 16.290000149 0.0 0.0 0.0 29.1751946751" Properties=species:S:1:pos:R:3:initial_magmoms:R:1 pbc="T T T"
Si      -1.54132723      -1.31217580      -1.18973526       0.00000000
Si      -1.40809132       1.18117162       1.46981713       0.00000000
Si       1.38942298      -1.31507542       1.42938031       0.00000000
Si       0.78211549       1.49967533      -1.70712817       0.00000000
H        1.17341758      -2.08911107      -2.24144268       0.00000000
Si      -1.28655163       2.22074079      -2.55414242       0.00000000
Si      -0.18329508      -2.66437613      -2.51688569       0.00000000
Si      -2.57204604       0.23327280      -2.67078485       0.00000000
Si       0.03873762       2.62255645       2.74521077       0.00000000
H       -0.60543415       3.78015969       0.02316510       0.00000000
