10
Lattice="16.290000149 0.0 0.0 0.0 16.290000149 0.0 0.0 0.0 29.1751946751" Properties=species:S:1:pos:R:3:initial_magmoms:R:1 pbc="T T T"
Si       1.27477396      -0.23128542      -1.92080729       0.00000000
Si      -0.33324453       2.12195171       0.93001768       0.00000000
Si       1.23181723      -1.32595714       1.50296015       0.00000000
Si      -2.06081534      -0.69361192      -0.90869061       0.00000000
H        2.58352886      -0.69867811      -1.32026508       0.00000000
H       -2.51405201       0.29035296       1.71424691       0.00000000
H        0.38473722      -3.05957154      -0.25475780       0.00000000
H       -1.24103737       2.04806027       2.14630237       0.00000000
H       -3.19261197      -0.63602677       0.09607392       0.00000000
Si       0.30664296      -2.21392505      -2.80420301       0.00000000
