10
Lattice="16.290000149 0.0 0.0 0.0 16.290000149 0.0 0.0 0.0 29.1751946751" Properties=species:S:1:pos:R:3:initial_magmoms:R:1 pbc="T T T"
Si      -1.28130625      -0.03942180      -0.82020225       0.00000000
Si       2.31039443      -0.19951992      -0.91785162       0.00000000
Si       2.16657002       0.21615201       1.44052524       0.00000000
Si       1.44863713       1.87859540      -1.70995816       0.00000000
H        1.29402874       2.67377546      -0.43377679       0.00000000
Si       0.64417177      -1.15760325       2.72204566       0.00000000
Si      -2.64339136      -1.42434874       0.51386270       0.00000000
Si      -0.80265718      -2.59898807       1.44665203       0.00000000
Si      -0.68111749      -1.55941891      -2.57730752       0.00000000
Si      -2.07617681       2.22190715      -0.60506436       0.00000000
