10
Lattice="10.86 0.0 0.0 0.0 10.86 0.0 0.0 0.0 10.86" Properties=species:S:1:pos:R:3:initial_magmoms:R:1 pbc="T T T"
Si      -1.59817932       1.01139180       1.22072916       0.00000000
Si       1.21244298      -1.45665180       1.42231248       0.00000000
Si      -1.78376586      -1.34964822      -1.10875170       0.00000000
Si       2.50542372      -2.76296862       0.15503736       0.00000000
Si      -0.20957628      -2.76296862      -2.55996264       0.00000000
Si       2.50542372      -0.04796862       2.87003736       0.00000000
Si      -2.92457628      -0.04796862      -2.55996264       0.00000000
Si      -0.20957628       2.66703138       2.87003736       0.00000000
Si      -2.92457628       2.66703138       0.15503736       0.00000000
Si      -0.20957628      -2.76296862       2.87003736       0.00000000
