10
Lattice="10.86 0.0 0.0 0.0 10.86 0.0 0.0 0.0 10.86" Properties=species:S:1:pos:R:3:initial_magmoms:R:1 pbc="T T T"
Si       1.29298074      -1.30631682      -1.26727512       0.00000000
Si      -1.21244298       1.45665180      -1.42231248       0.00000000
Si       1.29298074       1.40868318       1.44772488       0.00000000
Si      -1.42201926      -1.30631682       1.44772488       0.00000000
Si       2.70644232       2.56112466       0.17647500       0.00000000
Si      -0.06451926      -2.66381682      -2.62477512       0.00000000
Si      -2.81062230       2.46804360      -0.20158332       0.00000000
Si       2.65048074      -2.66381682       0.09022488       0.00000000
Si      -2.77951926      -2.66381682       0.09022488       0.00000000
Si       2.65048074       0.05118318       2.80522488       0.00000000
