10
Lattice="10.86 0.0 0.0 0.0 10.86 0.0 0.0 0.0 10.86" Properties=species:S:1:pos:R:3:initial_magmoms:R:1 pbc="T T T"
Si      -1.41346158      -1.15244148       1.27124988       0.00000000
Si       1.30153842      -1.15244148      -1.44375012       0.00000000
Si       1.30153842       1.56255852       1.27124988       0.00000000
Si      -0.05596158      -2.50994148       2.62874988       0.00000000
Si       2.65903842      -2.50994148      -0.08625012       0.00000000
Si      -2.70644232      -2.56112466      -0.17647500       0.00000000
Si       2.65903842       0.20505852       2.62874988       0.00000000
Si      -2.77096158       0.20505852       2.62874988       0.00000000
Si       0.05768832      -2.42113926      -2.98552260       0.00000000
Si       2.65903842       0.20505852      -2.80125012       0.00000000
