10
Lattice="10.86 0.0 0.0 0.0 10.86 0.0 0.0 0.0 10.86" Properties=species:S:1:pos:R:3:initial_magmoms:R:1 pbc="T T T"
Si       1.25906496      -1.25906496       1.34680290       0.00000000
Si       1.32544128       1.38955872      -1.38571428       0.00000000
Si      -1.38955872      -1.32544128      -1.38571428       0.00000000
Si      -1.38955872       1.38955872       1.32928572       0.00000000
Si       2.68676400      -2.68676400      -0.08373060       0.00000000
Si       2.68294128       0.03205872      -2.74321428       0.00000000
Si      -0.03205872      -2.68294128      -2.74321428       0.00000000
Si       2.68294128       2.74705872      -0.02821428       0.00000000
Si      -2.74705872      -2.68294128      -0.02821428       0.00000000
Si      -0.03205872       2.74705872       2.68678572       0.00000000
