10
Lattice="16.28999089631971 0.0 0.0 0.0 16.28999089631971 0.0 0.0 0.0 34.281931910070035" Properties=species:S:1:pos:R:3:initial_magmoms:R:1 pbc="T T T"
Si       0.73935423       2.21281731       0.29383060       0.00000000
Si       2.06135289      -1.13788908      -0.39849340       0.00000000
Si      -1.80353106      -0.03440448      -1.59647618       0.00000000
Si      -0.20315259      -0.92486475       2.23847428       0.00000000
Si       2.03765094       0.15252327       1.63566045       0.00000000
Si      -1.12474305      -1.64312343      -3.11859481       0.00000000
Si       2.76330528      -0.54133299      -2.49874285       0.00000000
Si      -3.72675194      -0.68354469      -0.31937066       0.00000000
Si       1.78497675       2.90946960      -1.71666870       0.00000000
Si      -0.90080442       3.42501390       1.51773054       0.00000000
