10
Lattice="16.28999089631971 0.0 0.0 0.0 16.28999089631971 0.0 0.0 0.0 34.281931910070035" Properties=species:S:1:pos:R:3:initial_magmoms:R:1 pbc="T T T"
Si      -2.25491067      -0.74686459       0.16222219       0.00000000
Si       0.94872960      -1.82376391       1.32475744       0.00000000
Si       0.05282847       2.24568076       0.99715911       0.00000000
Si      -1.20925557       1.49992456      -1.59016830       0.00000000
Si       1.66693941      -0.93476974      -1.65506403       0.00000000
Si      -3.01878135       0.40616509       2.06600178       0.00000000
Si       3.40825896       0.98716585       1.22595685       0.00000000
Si      -2.21889348      -0.07564180      -3.04399728       0.00000000
Si      -2.28086064       2.76450097       1.32640297       0.00000000
Si       0.50147136       2.58332359      -2.83693430       0.00000000
