10
Lattice="16.28999089631971 0.0 0.0 0.0 16.28999089631971 0.0 0.0 0.0 34.281931910070035" Properties=species:S:1:pos:R:3:initial_magmoms:R:1 pbc="T T T"
Si      -2.35208052       0.14779917       0.12704891       0.00000000
Si       0.62654598       2.11673889      -0.98080662       0.00000000
Si       0.44870805      -1.41709805      -1.95054017       0.00000000
Si       1.04329305      -0.71423505       2.11163106       0.00000000
Si      -1.31155677       1.77591951      -2.54101250       0.00000000
Si       2.86912512       1.29217167      -1.26318705       0.00000000
Si       2.68703550      -0.95156406      -1.97913132       0.00000000
Si      -2.90672244      -0.15858315      -2.17933791       0.00000000
Si      -0.06555096      -2.81245940       2.45455341       0.00000000
Si      -3.22931331       2.14814601       1.02886992       0.00000000
