10
Lattice="16.28999089631971 0.0 0.0 0.0 16.28999089631971 0.0 0.0 0.0 34.281931910070035" Properties=species:S:1:pos:R:3:initial_magmoms:R:1 pbc="T T T"
Si      -1.40103774       0.86415355      -1.62959254       0.00000000
Si      -0.22794597       1.91172435       1.36970107       0.00000000
Si      -1.28208816      -1.63179766       1.15070797       0.00000000
Si       2.16839448      -0.70290928      -0.74978055       0.00000000
Si       1.78821846       1.63119426       2.56939795       0.00000000
Si      -3.04595307      -1.97758549      -0.45821256       0.00000000
Si      -2.41030098      -1.00820017      -2.57673429       0.00000000
Si       3.27723849       1.39531506      -1.09270291       0.00000000
Si       2.97013941      -2.00674459       1.06085498       0.00000000
Si      -3.34078578       1.68255663      -0.39509949       0.00000000
