10
Lattice="16.28999089631971 0.0 0.0 0.0 16.28999089631971 0.0 0.0 0.0 34.281931910070035" Properties=species:S:1:pos:R:3:initial_magmoms:R:1 pbc="T T T"
Si      -1.29430566      -1.27092951      -1.53316225       0.00000000
Si       1.20506904      -1.46364021       1.52718550       0.00000000
Si      -1.52005248       1.23862644       1.52367503       0.00000000
Si       1.27770615       1.74047247      -1.45088557       0.00000000
Si      -2.73308733      -2.63541249       0.10701111       0.00000000
Si       2.62078407      -2.81667132       0.10211222       0.00000000
Si       2.54821212      -0.11362275       2.91510743       0.00000000
Si       2.77990479       2.70875007       0.06257485       0.00000000
Si      -0.16527834       2.60304426       2.91298195       0.00000000
Si      -3.03443604       2.56920993       0.18221543       0.00000000
