10
Lattice="16.28999089631971 0.0 0.0 0.0 16.28999089631971 0.0 0.0 0.0 34.281931910070035" Properties=species:S:1:pos:R:3:initial_magmoms:R:1 pbc="T T T"
Si       1.14851016       1.62155547      -1.28255635       0.00000000
Si      -0.54889155       1.08957294       2.04388992       0.00000000
Si      -2.24090127      -0.66267720      -0.53308434       0.00000000
Si       1.40957370      -1.96605639       0.26386818       0.00000000
Si      -1.91120796      -2.76231159       0.66311578       0.00000000
Si       3.29721003       1.28835981      -0.30634351       0.00000000
Si       0.10495647      -3.04284168       1.86281266       0.00000000
Si       0.12885390       3.69714582      -0.68584471       0.00000000
Si      -0.49845771       3.41892891       1.54683591       0.00000000
Si      -3.70700127       0.83280996       0.68008535       0.00000000
