10
Lattice="16.28999089631971 0.0 0.0 0.0 16.28999089631971 0.0 0.0 0.0 34.281931910070035" Properties=species:S:1:pos:R:3:initial_magmoms:R:1 pbc="T T T"
Si       1.78432515      -1.02006351       1.02732723       0.00000000
Si      -2.04590087      -0.83484621       0.71570429       0.00000000
Si       0.53525682      -0.91403190      -2.08979346       0.00000000
Si      -0.37318598       2.32212321       0.12591761       0.00000000
Si      -0.82644383       0.62851707      -3.16110443       0.00000000
Si      -0.65368186      -2.91582855      -1.65739521       0.00000000
Si       1.85230332       2.91025737      -0.30802333       0.00000000
Si      -1.63348301       2.45820987      -1.86291550       0.00000000
Si       2.19149370       0.45944316       2.72510657       0.00000000
Si      -1.74189964      -0.25835940       3.07985620       0.00000000
