10
Lattice="16.28999089631971 0.0 0.0 0.0 16.28999089631971 0.0 0.0 0.0 34.281931910070035" Properties=species:S:1:pos:R:3:initial_magmoms:R:1 pbc="T T T"
Si       1.35725022       1.35552348       1.35753098       0.00000000
Si      -1.35643572       1.35544203      -1.35924508       0.00000000
Si      -1.35809730      -1.36003581       1.35732529       0.00000000
Si       1.35555606      -1.35917244      -1.36366745       0.00000000
Si      -2.72227077      -0.00645084      -2.68956305       0.00000000
Si      -2.71384884       2.71046052       0.00130271       0.00000000
Si       0.00022806       2.71235016       2.71478771       0.00000000
Si      -2.71498914      -0.00276930       2.71502768       0.00000000
Si       2.71640637       2.71409319      -0.00044567       0.00000000
Si      -2.71485882      -2.71588509       0.00003428       0.00000000
