10
Lattice="16.28999089631971 0.0 0.0 0.0 16.28999089631971 0.0 0.0 0.0 34.281931910070035" Properties=species:S:1:pos:R:3:initial_magmoms:R:1 pbc="T T T"
Si       1.48377139      -1.65834548      -0.49551132       0.00000000
Si      -1.70194077       0.05042081      -1.58211204       0.00000000
Si       1.18893868       2.00179665      -0.43239825       0.00000000
Si      -1.01182403      -0.22951700       2.13586840       0.00000000
Si       0.65368186       2.91582855       1.65739521       0.00000000
Si       2.11942348      -0.68896016      -2.61403305       0.00000000
Si      -1.39221900       2.08098234       2.37309950       0.00000000
Si      -2.14240608       2.30172813      -1.57076472       0.00000000
Si       0.19185222      -3.64377068      -0.30233253       0.00000000
Si      -3.38927526      -1.22087753      -0.68923863       0.00000000
