10
Lattice="16.28999089631971 0.0 0.0 0.0 16.28999089631971 0.0 0.0 0.0 34.281931910070035" Properties=species:S:1:pos:R:3:initial_magmoms:R:1 pbc="T T T"
Si       0.88322751       1.11718449      -1.88201055       0.00000000
Si       0.21400173      -2.38962897      -0.23013474       0.00000000
Si      -2.24443620       0.01140300       0.89033655       0.00000000
Si       1.64361213       1.11319344       1.51018851       0.00000000
Si      -0.46437903      -2.88251550       1.97710868       0.00000000
Si       3.18257730       0.67404762      -1.45180635       0.00000000
Si       3.52145817       0.01725111       0.77394933       0.00000000
Si      -0.16785216       3.21103593      -1.69736796       0.00000000
Si       0.94165974       0.51663735       3.61043796       0.00000000
Si      -3.75199099       0.12854439      -0.92540699       0.00000000
