10
Lattice="16.28999089631971 0.0 0.0 0.0 16.28999089631971 0.0 0.0 0.0 34.281931910070035" Properties=species:S:1:pos:R:3:initial_magmoms:R:1 pbc="T T T"
Si      -1.37523438       1.32908481       1.28680732       0.00000000
Si       0.83911419       1.68560775      -1.36533732       0.00000000
Si       1.37443617      -1.40766777       1.25967658       0.00000000
Si      -1.71273060      -1.07487936      -1.21709977       0.00000000
Si      -0.02945232      -1.93160304      -2.74086397       0.00000000
Si       0.73669896       0.37954071      -3.33479877       0.00000000
Si       2.65994523       2.63707407      -0.12391211       0.00000000
Si      -0.01197315       2.66996358       2.63534957       0.00000000
Si       2.70804960      -0.04631247       2.63593236       0.00000000
Si      -2.72212416      -0.04435767       2.63414970       0.00000000
