10
Lattice="16.28999089631971 0.0 0.0 0.0 16.28999089631971 0.0 0.0 0.0 34.281931910070035" Properties=species:S:1:pos:R:3:initial_magmoms:R:1 pbc="T T T"
Si       1.36170065      -1.54254897       1.07131097       0.00000000
Si      -1.96964412      -1.24261749      -0.06705550       0.00000000
Si       1.47719675       0.74878614      -1.64529368       0.00000000
Si      -0.80703918       1.82969280       1.29818892       0.00000000
Si       0.82644383      -0.62851707       3.16110443       0.00000000
Si       0.33947057       2.77654905      -2.03144557       0.00000000
Si      -2.82820857      -0.89246394       2.14707860       0.00000000
Si       0.45325785       1.69360614       3.28702203       0.00000000
Si      -0.41494377       3.74586921       0.00092561       0.00000000
Si      -1.52917881      -3.49392481      -0.07840282       0.00000000
