10
Lattice="16.28999089631971 0.0 0.0 0.0 16.28999089631971 0.0 0.0 0.0 34.281931910070035" Properties=species:S:1:pos:R:3:initial_magmoms:R:1 pbc="T T T"
Si       0.69374223      -1.29707496       1.82383408       0.00000000
Si      -2.23989129       0.27228735       0.65787064       0.00000000
Si       0.50116185      -1.34478837      -1.90107131       0.00000000
Si       0.82596816       2.22270534      -0.40946362       0.00000000
Si      -0.01560582       0.28162152       3.44063946       0.00000000
Si      -3.18881637      -1.77714126       0.10990794       0.00000000
Si      -3.09439953       1.65594366      -1.08958325       0.00000000
Si       3.07200078       2.14094583       0.25012111       0.00000000
Si       2.18186631      -0.17914113      -3.15270535       0.00000000
Si      -2.31495561       0.72475839       3.01043525       0.00000000
