10
Lattice="16.28999089631971 0.0 0.0 0.0 16.28999089631971 0.0 0.0 0.0 34.281931910070035" Properties=species:S:1:pos:R:3:initial_magmoms:R:1 pbc="T T T"
Si      -1.05107967       2.09385144       0.18464259       0.00000000
Si      -0.88322751      -1.11718449       1.88201055       0.00000000
Si       2.29934979      -0.44313687       0.43020420       0.00000000
Si       0.07506432      -0.45247104      -2.35256461       0.00000000
Si       0.76038462      -0.00399105       3.39219906       0.00000000
Si      -2.81494458       1.74806361      -1.42427794       0.00000000
Si       3.20114790       1.71890451       0.09478959       0.00000000
Si       3.00869784      -2.02183335      -1.18660117       0.00000000
Si       0.23100849       3.72564910      -0.96606538       0.00000000
Si       2.31495561      -0.72475839      -3.01043525       0.00000000
