10
Lattice="16.28999089631971 0.0 0.0 0.0 16.28999089631971 0.0 0.0 0.0 34.281931910070035" Properties=species:S:1:pos:R:3:initial_magmoms:R:1 pbc="T T T"
Si      -0.73935423      -2.21281731      -0.29383060       0.00000000
Si       1.04562252       0.69665229      -2.01049930       0.00000000
Si      -1.64015865       1.21219659       1.22389994       0.00000000
Si       1.29829671      -2.06029404       1.34182985       0.00000000
Si       1.48498011       2.97514763      -1.50134377       0.00000000
Si       1.32199866      -3.35070639      -0.69232400       0.00000000
Si      -0.94250682      -3.13768206       1.94464367       0.00000000
Si       3.00361536      -0.57215367      -2.30988358       0.00000000
Si      -1.46223927       3.49921322       0.74179286       0.00000000
Si      -0.50976297       0.30276594      -3.83635602       0.00000000
