10
Lattice="16.28999089631971 0.0 0.0 0.0 16.28999089631971 0.0 0.0 0.0 34.281931910070035" Properties=species:S:1:pos:R:3:initial_magmoms:R:1 pbc="T T T"
Si       0.77020749       1.84747496      -1.17448456       0.00000000
Si       1.47325131      -1.19850992       1.37647176       0.00000000
Si      -1.24662483       1.50274598       1.38258080       0.00000000
Si      -1.15248492      -1.54668404      -1.51551391       0.00000000
Si      -0.16565301       1.25733713      -3.28689660       0.00000000
Si      -2.29120479       0.26329364      -2.68072314       0.00000000
Si      -2.64432312      -2.58580685      -0.00792599       0.00000000
Si       2.75724540      -2.51336522      -0.19623332       0.00000000
Si       0.11634318      -2.55143495       2.74921021       0.00000000
Si      -2.59889031       0.16186558       2.75812352       0.00000000
