10
Lattice="16.28999089631971 0.0 0.0 0.0 16.28999089631971 0.0 0.0 0.0 34.281931910070035" Properties=species:S:1:pos:R:3:initial_magmoms:R:1 pbc="T T T"
Si      -0.01368963      -2.22031560       0.75872814       0.00000000
Si      -1.90356520       1.09125081       0.86664772       0.00000000
Si       1.96231963       0.94610691       0.95890045       0.00000000
Si      -0.30400123      -0.57648681      -2.36415191       0.00000000
Si      -3.23263372      -0.89867043       0.74487823       0.00000000
Si       1.74189964       0.25835940      -3.07985620       0.00000000
Si      -2.13711493      -2.91842585      -0.04460082       0.00000000
Si      -1.90535710       3.09223296      -0.38995719       0.00000000
Si       0.35319343       3.60233802      -0.96531118       0.00000000
Si       1.57904851       3.27139038       1.01018625       0.00000000
