10
Lattice="16.28999089631971 0.0 0.0 0.0 16.28999089631971 0.0 0.0 0.0 34.281931910070035" Properties=species:S:1:pos:R:3:initial_magmoms:R:1 pbc="T T T"
Si      -1.35003375       1.35573525      -1.36003356       0.00000000
Si      -1.35250983      -1.35208792       1.36593006       0.00000000
Si       1.36435266      -1.36061899      -1.35900510       0.00000000
Si       1.36549296       1.37940462       1.37998566       0.00000000
Si       0.20593818      -2.50200228       2.69031039       0.00000000
Si      -2.70909216       2.71397916      -0.00027426       0.00000000
Si      -2.70858717      -0.00281817      -2.71701603       0.00000000
Si      -2.71046052      -2.71675033      -0.00181694       0.00000000
Si       0.00566892       2.71282257      -2.71677606       0.00000000
Si       2.71930599       2.71125873      -0.00037710       0.00000000
