10
Lattice="16.28999089631971 0.0 0.0 0.0 16.28999089631971 0.0 0.0 0.0 34.281931910070035" Properties=species:S:1:pos:R:3:initial_magmoms:R:1 pbc="T T T"
Si      -2.23832745      -0.46553399       0.02859115       0.00000000
Si       0.18208962       2.24373573       0.71594427       0.00000000
Si       1.78463466      -1.42145563       0.74384977       0.00000000
Si      -1.48543623       0.16136874      -2.53593877       0.00000000
Si      -2.68703550       0.95156406       1.97913132       0.00000000
Si       1.38305358       2.01622959       2.72215832       0.00000000
Si      -2.35745622      -2.80708370       0.41597719       0.00000000
Si       1.70926083       3.19474593      -0.80041499       0.00000000
Si       3.79723158      -0.36218697       0.13373389       0.00000000
Si      -2.06048952       3.06830295       0.99832470       0.00000000
