10
Lattice="16.28999089631971 0.0 0.0 0.0 16.28999089631971 0.0 0.0 0.0 34.281931910070035" Properties=species:S:1:pos:R:3:initial_magmoms:R:1 pbc="T T T"
Si       1.35454608      -1.35728280       1.35783952       0.00000000
Si      -1.35614250       1.35645201       1.35969074       0.00000000
Si       1.35591444       1.35839052      -1.35873085       0.00000000
Si      -1.35909099      -1.35571896      -1.35855944       0.00000000
Si       2.71394658      -2.71334385      -0.00161125       0.00000000
Si       0.00073305      -2.68913691       2.73820228       0.00000000
Si      -2.71479366      -2.71280628      -0.00181694       0.00000000
Si       2.71420722       2.71590138      -0.00243402       0.00000000
Si      -0.00138465      -2.71415835      -2.71595329       0.00000000
Si       2.71441899       0.00100998      -2.71626183       0.00000000
