10
Lattice="16.28999089631971 0.0 0.0 0.0 16.28999089631971 0.0 0.0 0.0 34.281931910070035" Properties=species:S:1:pos:R:3:initial_magmoms:R:1 pbc="T T T"
Si       0.45928026       2.14304724       0.84254751       0.00000000
Si      -2.14869987       0.33319566      -0.97621284       0.00000000
Si       0.53879175      -0.97549407       2.14128495       0.00000000
Si       1.70033391      -0.83544894      -1.53120334       0.00000000
Si       2.78343972      -0.32487147       1.90247687       0.00000000
Si      -3.29721003      -1.28835981       0.30634351       0.00000000
Si       2.72403009       1.97815986       1.40720553       0.00000000
Si       0.18505440      -3.25324332       1.87978222       0.00000000
Si       3.53563047      -1.33024140      -0.04412087       0.00000000
Si       2.08842687       1.01801097      -2.99840229       0.00000000
