10
Lattice="16.28999089631971 0.0 0.0 0.0 16.28999089631971 0.0 0.0 0.0 34.281931910070035" Properties=species:S:1:pos:R:3:initial_magmoms:R:1 pbc="T T T"
Si      -1.14851016      -1.62155547       1.28255635       0.00000000
Si      -0.46330389      -0.04403187      -2.33658922       0.00000000
Si       2.14869987      -0.33319566       0.97621284       0.00000000
Si      -1.01965626       2.07559035       0.59671164       0.00000000
Si      -2.88103311       0.13872564      -2.06912144       0.00000000
Si      -3.13246926       1.79460414      -0.36839385       0.00000000
Si       2.60798013       1.80985158       1.81876035       0.00000000
Si       0.69089148       1.98231381      -3.07018869       0.00000000
Si      -1.64696787       1.79737344       2.82939227       0.00000000
Si      -1.69740171      -0.53198253       3.32644628       0.00000000
