10
Lattice="16.28999089631971 0.0 0.0 0.0 16.28999089631971 0.0 0.0 0.0 34.281931910070035" Properties=species:S:1:pos:R:3:initial_magmoms:R:1 pbc="T T T"
Si      -0.35373735      -2.27774925      -0.26150272       0.00000000
Si       2.24464797       0.65062260      -0.23880807       0.00000000
Si      -0.53879175       0.97549407      -2.14128495       0.00000000
Si      -0.85494807       0.51883650       2.23679446       0.00000000
Si      -0.07951149       3.11854131      -1.29873743       0.00000000
Si      -2.42642808      -2.27892213      -1.57107325       0.00000000
Si       2.99683872      -0.35474733      -2.18540582       0.00000000
Si       2.18523834       2.95365393      -0.73407942       0.00000000
Si      -3.15752328       0.10821447       2.03888476       0.00000000
Si       3.24742779       0.44356041       1.84306625       0.00000000
