10
Lattice="16.28999089631971 0.0 0.0 0.0 16.28999089631971 0.0 0.0 0.0 34.281931910070035" Properties=species:S:1:pos:R:3:initial_magmoms:R:1 pbc="T T T"
Si       0.82815102       1.83826134       1.23285579       0.00000000
Si       1.46243475      -1.88644716       0.21144357       0.00000000
Si      -1.83611106      -0.84549987       1.32077185       0.00000000
Si       0.65575395      -0.32799915      -2.76123975       0.00000000
Si       0.52657425      -2.47658499      -1.90096847       0.00000000
Si       2.16104769       0.50226957       2.76105947       0.00000000
Si      -0.55439757      -2.23117614       2.76850893       0.00000000
Si       3.34935432      -0.96342318       1.30134427       0.00000000
Si       2.62290177       2.80411173      -0.14641821       0.00000000
Si      -3.22504533      -2.09632752      -0.21289092       0.00000000
