10
Lattice="16.28999089631971 0.0 0.0 0.0 16.28999089631971 0.0 0.0 0.0 34.281931910070035" Properties=species:S:1:pos:R:3:initial_magmoms:R:1 pbc="T T T"
Si      -0.50116185       1.34478837       1.90107131       0.00000000
Si      -1.70606799      -0.40542552      -1.62085065       0.00000000
Si       1.68070446       1.16564724      -1.25163403       0.00000000
Si       0.93755466      -2.21688981       0.29928143       0.00000000
Si       3.12150609      -0.64303146      -1.78742665       0.00000000
Si      -3.62221182      -0.61235739      -0.34028265       0.00000000
Si       0.19258038       0.04771341       3.72490539       0.00000000
Si       2.86589970      -1.75876614       1.65821797       0.00000000
Si       1.96358031      -2.79275760      -1.81255532       0.00000000
Si       0.32480631       3.56749371       1.49160769       0.00000000
