10
Lattice="16.28999089631971 0.0 0.0 0.0 16.28999089631971 0.0 0.0 0.0 34.281931910070035" Properties=species:S:1:pos:R:3:initial_magmoms:R:1 pbc="T T T"
Si       2.27629944      -0.26314866      -0.48056439       0.00000000
Si      -1.06403022      -1.79077599      -1.08162984       0.00000000
Si      -0.82420884       2.18331612      -0.29619606       0.00000000
Si      -0.21465333      -0.70840323       2.26919091       0.00000000
Si       3.15465624       0.72630594       1.46791886       0.00000000
Si      -0.62420022      -3.54543705       0.39959042       0.00000000
Si      -3.28626315      -1.10837160      -1.06373466       0.00000000
Si      -0.90800460       2.32964919      -2.63744762       0.00000000
Si       2.00614608      -0.61620183       2.98376389       0.00000000
Si       2.89740456      -2.53881279      -0.60504215       0.00000000
