10
Lattice="16.28999089631971 0.0 0.0 0.0 16.28999089631971 0.0 0.0 0.0 34.281931910070035" Properties=species:S:1:pos:R:3:initial_magmoms:R:1 pbc="T T T"
Si      -0.56312901       1.15460262      -1.95791079       0.00000000
Si      -0.69603912      -2.17075653      -0.53812379       0.00000000
Si       2.36962485      -0.25361901       0.02043204       0.00000000
Si      -1.42750899       1.14155433       1.65986351       0.00000000
Si      -2.84990292       1.44912582      -1.51574218       0.00000000
Si       2.98900323       1.05138918       1.83785540       0.00000000
Si      -3.53313810       0.78604137       0.65670505       0.00000000
Si      -0.74979612      -3.30413328       1.61910227       0.00000000
Si       1.46870640       2.93912325       1.92643996       0.00000000
Si      -0.82539801       3.43989414       1.45108642       0.00000000
