10
Lattice="16.28999089631971 0.0 0.0 0.0 16.28999089631971 0.0 0.0 0.0 34.281931910070035" Properties=species:S:1:pos:R:3:initial_magmoms:R:1 pbc="T T T"
Si       1.49183820       1.03912281      -1.50758792       0.00000000
Si      -1.30662090       1.40232465       1.39198434       0.00000000
Si       1.40353011      -1.32973641       1.38834360       0.00000000
Si      -1.82083104      -0.95146632      -1.24142521       0.00000000
Si       2.64432312       2.58580685       0.00792599       0.00000000
Si      -2.65994523      -2.63707407       0.12391211       0.00000000
Si      -2.58012423       2.76739800      -0.11877325       0.00000000
Si      -3.47630229       0.87979032      -1.35455329       0.00000000
Si      -2.67191838       0.03288951       2.75926168       0.00000000
Si       0.04810437      -2.68338654       2.75984447       0.00000000
