10
Lattice="16.28999089631971 0.0 0.0 0.0 16.28999089631971 0.0 0.0 0.0 34.281931910070035" Properties=species:S:1:pos:R:3:initial_magmoms:R:1 pbc="T T T"
Si      -1.35400851       1.35508365      -1.35797665       0.00000000
Si       1.35839607       1.35532800       1.35729101       0.00000000
Si      -1.35591444      -1.36003581       1.35756526       0.00000000
Si       1.35665793      -1.36006839      -1.36363317       0.00000000
Si      -2.71285515       2.71195920       0.00047995       0.00000000
Si       0.00064612       2.70301599      -2.72241201       0.00000000
Si       0.00147129       2.71251306       2.71523337       0.00000000
Si      -2.71388142      -0.00270414       2.71492483       0.00000000
Si       2.71616920       2.71422351       0.00034282       0.00000000
Si       2.71595743      -0.00192222       2.71526765       0.00000000
