10
Lattice="16.28999089631971 0.0 0.0 0.0 16.28999089631971 0.0 0.0 0.0 34.281931910070035" Properties=species:S:1:pos:R:3:initial_magmoms:R:1 pbc="T T T"
Si       1.33799544       1.36755203      -1.38533364       0.00000000
Si      -1.18120419       1.58511704       1.30490819       0.00000000
Si      -1.38212505      -1.34900748      -1.38310532       0.00000000
Si       1.43988939      -1.30725621       1.58948266       0.00000000
Si       2.70304857      -2.69249265       0.00339391       0.00000000
Si       2.68317477       2.71812889       0.01114163       0.00000000
Si      -2.74194909      -2.68245801       0.01004461       0.00000000
Si       2.69187363       0.01272249      -2.74485298       0.00000000
Si      -0.01998783      -2.70091458      -2.74492154       0.00000000
Si      -0.02278971       2.72650032      -2.74440731       0.00000000
