10
Lattice="16.28999089631971 0.0 0.0 0.0 16.28999089631971 0.0 0.0 0.0 34.281931910070035" Properties=species:S:1:pos:R:3:initial_magmoms:R:1 pbc="T T T"
Si      -0.32187411      -1.08766701      -2.07296102       0.00000000
Si       0.11912877       2.34154971      -0.38738605       0.00000000
Si      -2.34040059      -0.46938006      -0.28858546       0.00000000
Si       0.34639056      -0.57860451       2.31365460       0.00000000
Si       1.70228871      -2.98045098      -0.42958713       0.00000000
Si      -1.62219078       0.41961411      -3.26840693       0.00000000
Si       2.35745622       2.80708370      -0.41597719       0.00000000
Si      -2.42673759      -2.46821193      -1.72955871       0.00000000
Si      -3.28913019       1.35438385      -1.61334290       0.00000000
Si      -0.47957760      -2.80130985       2.72311822       0.00000000
