10
Lattice="16.28999089631971 0.0 0.0 0.0 16.28999089631971 0.0 0.0 0.0 34.281931910070035" Properties=species:S:1:pos:R:3:initial_magmoms:R:1 pbc="T T T"
Si       1.35665502      -1.35713619       1.35801093       0.00000000
Si      -1.35796698       1.35733167       1.35735957       0.00000000
Si      -1.35881406      -1.35759231      -1.35698247       0.00000000
Si       1.35591444       1.36003581      -1.35756526       0.00000000
Si      -2.71052568       0.00149868      -2.71653608       0.00000000
Si       2.71415413      -2.71471058      -0.00003428       0.00000000
Si       0.00011403       2.71542897       2.71413635       0.00000000
Si       2.71431052       2.71536381      -0.00027426       0.00000000
Si      -2.71552671      -2.71439130       0.00037710       0.00000000
Si      -0.00107514      -2.71509503       2.71492483       0.00000000
