10
Lattice="16.28999089631971 0.0 0.0 0.0 16.28999089631971 0.0 0.0 0.0 34.281931910070035" Properties=species:S:1:pos:R:3:initial_magmoms:R:1 pbc="T T T"
Si       1.76997366      -0.38721330       1.56466253       0.00000000
Si      -1.18195353      -1.46492712      -1.51639354       0.00000000
Si       1.59488874       1.30007232      -1.45979404       0.00000000
Si      -1.28459682       0.57779001       2.29826200       0.00000000
Si      -1.94908221      -1.85298750       1.82098868       0.00000000
Si       0.85209732       1.03306293       3.25328859       0.00000000
Si      -3.02994815      -2.29765563      -0.20877708       0.00000000
Si      -2.44600866      -0.09397701      -2.95681828       0.00000000
Si       0.26008614       2.61550611      -2.93899167       0.00000000
Si       3.31864767       2.31922359      -0.07518032       0.00000000
