10
Lattice="16.28999089631971 0.0 0.0 0.0 16.28999089631971 0.0 0.0 0.0 34.281931910070035" Properties=species:S:1:pos:R:3:initial_magmoms:R:1 pbc="T T T"
Si      -1.52717121      -0.95101020       1.51635926       0.00000000
Si       2.19672279      -0.30095775       0.79503273       0.00000000
Si       0.22255398      -1.16222634      -2.04491838       0.00000000
Si      -0.03907971       2.25797319       0.78053146       0.00000000
Si       1.72867851      -1.83876633       2.54447497       0.00000000
Si       1.17579591       0.50334471      -3.39367318       0.00000000
Si       3.14022330       1.88820648       0.24604156       0.00000000
Si      -1.70926083      -3.19474593       0.80041499       0.00000000
Si      -0.32620725      -1.17851634       3.52257332       0.00000000
Si       1.93406283      -2.94313059      -1.61879373       0.00000000
