10
Lattice="16.28999089631971 0.0 0.0 0.0 16.28999089631971 0.0 0.0 0.0 34.281931910070035" Properties=species:S:1:pos:R:3:initial_magmoms:R:1 pbc="T T T"
Si       1.35703845       1.35720135      -1.35633111       0.00000000
Si       1.35728799      -1.35715248       1.35715388       0.00000000
Si      -1.35703845      -1.35770634      -1.35759954       0.00000000
Si      -1.35791811       1.35806472       1.35735957       0.00000000
Si       2.71090917      -0.00063531      -2.71149664       0.00000000
Si       0.00001629      -2.71427238       2.71362212       0.00000000
Si       2.71421278      -2.71433754      -0.00078848       0.00000000
Si      -2.71541268       0.00011403       2.71358784       0.00000000
Si       2.71421929       2.71484253      -0.00010285       0.00000000
Si      -2.71520091      -2.71477737      -0.00023997       0.00000000
