10
Lattice="16.28999089631971 0.0 0.0 0.0 16.28999089631971 0.0 0.0 0.0 34.281931910070035" Properties=species:S:1:pos:R:3:initial_magmoms:R:1 pbc="T T T"
Si       2.27797731      -0.43754940       0.02653423       0.00000000
Si      -0.77706558       2.19100500       0.14621252       0.00000000
Si      -1.26356643      -1.51796736       1.26140439       0.00000000
Si      -1.00796004      -0.40223268      -2.18424023       0.00000000
Si      -2.44876167       1.40644602      -1.64844762       0.00000000
Si       0.35432379      -3.27358953       0.95046709       0.00000000
Si       2.41997724      -2.16761256       1.61882801       0.00000000
Si       1.49053500      -2.19054888      -2.58533906       0.00000000
Si       3.32342064       1.61560962       0.35810926       0.00000000
Si      -1.71465282      -0.39389220       3.31019663       0.00000000
