10
Lattice="16.28999089631971 0.0 0.0 0.0 16.28999089631971 0.0 0.0 0.0 34.281931910070035" Properties=species:S:1:pos:R:3:initial_magmoms:R:1 pbc="T T T"
Si       1.25685495       1.17151164      -1.56929059       0.00000000
Si      -2.26474983       0.16488738      -0.56465802       0.00000000
Si       0.97969689       0.87237837       1.94556929       0.00000000
Si       0.05940963      -2.30303133       0.49527135       0.00000000
Si      -2.90727630       0.89054172       1.55108688       0.00000000
Si       0.02547756      -0.51767991       3.52942971       0.00000000
Si       3.30155524       1.35031068      -0.38114673       0.00000000
Si      -2.72403009      -1.97815986      -1.40720553       0.00000000
Si       0.81160038      -3.30840126      -1.45132640       0.00000000
Si       0.36559647       3.09412260       2.01951546       0.00000000
