10
Lattice="16.28999089631971 0.0 0.0 0.0 16.28999089631971 0.0 0.0 0.0 34.281931910070035" Properties=species:S:1:pos:R:3:initial_magmoms:R:1 pbc="T T T"
Si       2.13669414       0.45527292       0.95502659       0.00000000
Si      -1.16925385       2.08371906      -0.11724427       0.00000000
Si      -1.13793795      -0.98238474       1.96315593       0.00000000
Si      -0.66448539      -2.43077751      -0.47727332       0.00000000
Si       1.28459682      -0.57779001      -2.29826200       0.00000000
Si       3.05457048      -0.96500331      -0.73359947       0.00000000
Si      -3.29444792      -0.74310093      -0.27682675       0.00000000
Si       2.18797506       2.89839825       1.17528813       0.00000000
Si      -0.00021177      -3.01014765       2.34930782       0.00000000
Si      -1.59601112       2.48471370      -2.45681602       0.00000000
