10
Lattice="16.28999089631971 0.0 0.0 0.0 16.28999089631971 0.0 0.0 0.0 34.281931910070035" Properties=species:S:1:pos:R:3:initial_magmoms:R:1 pbc="T T T"
Si      -2.18737233      -0.99729009      -0.11045645       0.00000000
Si       1.57891381      -0.85004478       1.60827675       0.00000000
Si       0.87961113      -0.52714440      -2.24265668       0.00000000
Si      -1.35715248       2.07458037       1.26764370       0.00000000
Si      -0.12939147      -1.84524975       2.85738146       0.00000000
Si      -0.93126672      -2.06933499      -2.61619281       0.00000000
Si      -2.45156355      -0.18160092      -2.52760825       0.00000000
Si       0.56488833       3.19997502      -1.48773383       0.00000000
Si       1.04868504       1.62092016      -3.23285655       0.00000000
Si      -1.00494639      -3.55364721       1.35927936       0.00000000
