10
Lattice="16.28999089631971 0.0 0.0 0.0 16.28999089631971 0.0 0.0 0.0 34.281931910070035" Properties=species:S:1:pos:R:3:initial_magmoms:R:1 pbc="T T T"
Si       2.09804516       1.00939356      -0.31193147       0.00000000
Si      -2.13457644       0.72746253      -0.76321908       0.00000000
Si       0.56821149      -2.35465434      -0.17398090       0.00000000
Si      -0.11546352       0.97795386       2.24485072       0.00000000
Si      -0.27940608       0.01803303      -3.13703850       0.00000000
Si       1.71765018       3.31989290      -0.07470037       0.00000000
Si      -1.45648890      -0.55257309       3.42250430       0.00000000
Si       3.42885019       0.41376600       1.62513589       0.00000000
Si      -2.03711337       2.96307674      -1.53901963       0.00000000
Si      -0.31014531      -3.34410894      -2.12246415       0.00000000
