10
Lattice="16.28999089631971 0.0 0.0 0.0 16.28999089631971 0.0 0.0 0.0 34.281931910070035" Properties=species:S:1:pos:R:3:initial_magmoms:R:1 pbc="T T T"
Si      -0.05030352      -1.04040972      -2.03226834       0.00000000
Si      -0.92649375       2.10417930       0.04837183       0.00000000
Si       2.20890771       0.34305111       0.67840553       0.00000000
Si      -1.29134088      -1.45946997       1.38365383       0.00000000
Si       2.03983380      -1.80501345       1.66860540       0.00000000
Si       1.72511100       1.92210597       2.42352825       0.00000000
Si      -0.55799766       2.67027309       2.27477886       0.00000000
Si       0.22895595      -3.34720404       1.29506927       0.00000000
Si       1.09820664       0.30209805      -3.54811337       0.00000000
Si      -2.27110293      -1.13261112      -2.74684133       0.00000000
