10
Lattice="16.28999089631971 0.0 0.0 0.0 16.28999089631971 0.0 0.0 0.0 34.281931910070035" Properties=species:S:1:pos:R:3:initial_magmoms:R:1 pbc="T T T"
Si      -1.37590227      -1.08436014       1.60589484       0.00000000
Si       1.17877698       1.61036424       1.42774868       0.00000000
Si      -1.89912078       0.82411110      -1.43826498       0.00000000
Si       1.35715248      -2.07458037      -1.26764370       0.00000000
Si      -0.83021985      -3.07187046      -1.37810015       0.00000000
Si      -0.36106785       1.87356177      -2.90412692       0.00000000
Si       1.92204081       1.12539465      -2.75537754       0.00000000
Si      -2.66022216      -2.38345506       0.05697660       0.00000000
Si      -2.73095334       2.57704542       0.10846809       0.00000000
Si      -0.10987605      -2.50602102       3.00920594       0.00000000
