10
Lattice="16.28999089631971 0.0 0.0 0.0 16.28999089631971 0.0 0.0 0.0 34.281931910070035" Properties=species:S:1:pos:R:3:initial_magmoms:R:1 pbc="T T T"
Si       2.22548930       0.58813416      -0.43394094       0.00000000
Si       0.37318598      -2.32212321      -0.12591761       0.00000000
Si      -1.26029703       0.13608666      -1.98883311       0.00000000
Si      -1.01552023       1.02185541       1.98862742       0.00000000
Si       3.20989400       0.20755089       1.62760419       0.00000000
Si      -1.67271489      -3.15696942       0.58978669       0.00000000
Si      -0.45325785      -1.69360614      -3.28702203       0.00000000
Si      -3.52465983      -0.28655739      -1.46449067       0.00000000
Si       2.41580537       2.86819659      -1.01755687       0.00000000
Si      -1.06588565       3.37497849       1.74179737       0.00000000
