10
Lattice="16.28999089631971 0.0 0.0 0.0 16.28999089631971 0.0 0.0 0.0 34.281931910070035" Properties=species:S:1:pos:R:3:initial_magmoms:R:1 pbc="T T T"
Si       1.22585508      -0.33094764       1.97549743       0.00000000
Si      -0.05036542       2.35312308      -0.24683005       0.00000000
Si      -2.25855053      -0.51010506       0.57535398       0.00000000
Si       1.01552023      -1.02185541      -1.98862742       0.00000000
Si      -3.26133035      -0.30304287      -1.50652034       0.00000000
Si       1.60912620      -2.65623111       1.92421163       0.00000000
Si      -2.34104309       2.87236683      -0.05622240       0.00000000
Si       3.40643448       0.36540099       1.46884448       0.00000000
Si      -0.35319343      -3.60233802       0.96531118       0.00000000
Si      -2.25675863      -2.51108721       1.83195890       0.00000000
