10
Lattice="16.28999089631971 0.0 0.0 0.0 16.28999089631971 0.0 0.0 0.0 34.281931910070035" Properties=species:S:1:pos:R:3:initial_magmoms:R:1 pbc="T T T"
Si      -1.35647156      -1.35707882       1.35783952       0.00000000
Si       1.35731538      -1.35701366      -1.35794236       0.00000000
Si       1.35814617       1.35815046       1.35749670       0.00000000
Si      -1.35827160       1.35819607      -1.35807949       0.00000000
Si       2.71282257       0.00152880       2.71489055       0.00000000
Si       2.71474479      -2.71458968      -0.00051423       0.00000000
Si       2.71469592       2.71546095      -0.00030854       0.00000000
Si      -0.00078192       2.71518402      -2.71506196       0.00000000
Si      -2.71536819      -2.71488290      -0.00003428       0.00000000
Si       0.00066789      -2.71647932      -2.71399922       0.00000000
