10
Lattice="16.28999089631971 0.0 0.0 0.0 16.28999089631971 0.0 0.0 0.0 34.281931910070035" Properties=species:S:1:pos:R:3:initial_magmoms:R:1 pbc="T T T"
Si       1.35562285       1.35563751      -1.35684534       0.00000000
Si       1.35490609      -1.35967743       1.35934792       0.00000000
Si      -1.35981829       1.35311256       1.36164481       0.00000000
Si      -1.35894475      -1.35918873      -1.35694819       0.00000000
Si       0.00907516      -2.70216891       2.72246686       0.00000000
Si       0.02216417       2.70852201       2.71729029       0.00000000
Si      -0.00201344       2.71280628      -2.71420491       0.00000000
Si       2.71251469      -0.00162900      -2.71454773       0.00000000
Si       2.71388305       2.71549413       0.00030854       0.00000000
Si       2.71440433      -2.71560816      -0.00075420       0.00000000
