10
Lattice="16.28999089631971 0.0 0.0 0.0 16.28999089631971 0.0 0.0 0.0 34.281931910070035" Properties=species:S:1:pos:R:3:initial_magmoms:R:1 pbc="T T T"
Si      -2.29067766       0.51924375       0.19060765       0.00000000
Si       0.03118069       0.99717606      -2.13610837       0.00000000
Si       0.05036542      -2.35312308       0.24683005       0.00000000
Si       1.58092495       1.13129163       1.39465833       0.00000000
Si       0.44888724       3.28201146      -1.63974000       0.00000000
Si      -2.20818510      -2.86322814       0.82218403       0.00000000
Si       1.27622050      -2.68407072       2.22232748       0.00000000
Si       1.95644203       3.16487007       0.17600354       0.00000000
Si      -3.27037455      -0.35313462      -1.75496164       0.00000000
Si      -3.24489699      -0.87081453       1.77446807       0.00000000
