10
Lattice="16.28999089631971 0.0 0.0 0.0 16.28999089631971 0.0 0.0 0.0 34.281931910070035" Properties=species:S:1:pos:R:3:initial_magmoms:R:1 pbc="T T T"
Si       0.00741195      -0.38475351      -2.33715628       0.00000000
Si       0.81583578       1.90944864       1.15345053       0.00000000
Si      -1.86470978      -0.89236620       1.19499682       0.00000000
Si       1.77249861      -1.86380406       0.12836739       0.00000000
Si       2.10999483       0.54016011       2.63227448       0.00000000
Si      -0.60273000      -2.19517524       2.64929889       0.00000000
Si      -0.24083136      -2.77475715      -2.39149318       0.00000000
Si       2.24821548       0.69263451      -2.93997011       0.00000000
Si       3.48522921      -0.78892470       1.34546716       0.00000000
Si       2.66887215       2.72793969      -0.13299824       0.00000000
