10
Lattice="16.28999089631971 0.0 0.0 0.0 16.28999089631971 0.0 0.0 0.0 34.281931910070035" Properties=species:S:1:pos:R:3:initial_magmoms:R:1 pbc="T T T"
Si      -1.35671546      -1.35641943       1.35777095       0.00000000
Si       1.35725949      -1.35765747      -1.35759954       0.00000000
Si      -1.35749738       1.35775521      -1.35783952       0.00000000
Si       1.35889663       1.35780408       1.35787380       0.00000000
Si       2.71320162      -0.00232947       2.71437632       0.00000000
Si       0.00007864      -2.71529865      -2.71382781       0.00000000
Si      -2.71487792      -2.71443528      -0.00013713       0.00000000
Si       2.71489578      -2.71482624      -0.00023997       0.00000000
Si       2.71603608      -0.00159642      -2.71396494       0.00000000
Si      -2.71523630       2.71496136      -0.00010285       0.00000000
