10
Lattice="16.28999089631971 0.0 0.0 0.0 16.28999089631971 0.0 0.0 0.0 34.281931910070035" Properties=species:S:1:pos:R:3:initial_magmoms:R:1 pbc="T T T"
Si      -1.35617357       1.35565284      -1.36342748       0.00000000
Si       1.36085575      -1.35923760      -1.36246758       0.00000000
Si       1.34527111       1.37272313       1.37148373       0.00000000
Si      -1.35803063      -1.35439947       1.39716092       0.00000000
Si       0.14526695      -2.66462046       2.72925469       0.00000000
Si      -2.70967709       2.71351394      -0.00339391       0.00000000
Si       2.71426479       2.71440989      -0.00030854       0.00000000
Si      -2.71704017      -2.71422351      -0.00185123       0.00000000
Si      -2.71327718      -0.00208032      -2.72044423       0.00000000
Si       0.00155659       2.71361168      -2.72034138       0.00000000
