10
Lattice="16.28999089631971 0.0 0.0 0.0 16.28999089631971 0.0 0.0 0.0 34.281931910070035" Properties=species:S:1:pos:R:3:initial_magmoms:R:1 pbc="T T T"
Si       0.23568372       2.30770656       0.06163895       0.00000000
Si       0.86291388      -0.96808212       1.94464367       0.00000000
Si       1.43483949      -0.84750354      -1.69393977       0.00000000
Si      -2.37263850       0.13872564      -0.31436549       0.00000000
Si      -1.50498260       2.09803797      -1.68578066       0.00000000
Si       3.35298699      -0.76802463      -0.21679906       0.00000000
Si      -0.97924403      -2.12239152       2.70429743       0.00000000
Si       3.43932399       1.23080724       1.22417419       0.00000000
Si       2.20574745       0.55482111       3.14629462       0.00000000
Si       0.19510533      -2.50797582      -2.96662292       0.00000000
