10
Lattice="16.28999089631971 0.0 0.0 0.0 16.28999089631971 0.0 0.0 0.0 34.281931910070035" Properties=species:S:1:pos:R:3:initial_magmoms:R:1 pbc="T T T"
Si       1.77668351       0.88089138      -1.45879986       0.00000000
Si       1.74066632       0.20966859       1.74741961       0.00000000
Si      -0.89034754      -1.90141767      -1.37953999       0.00000000
Si      -0.86765590      -1.95931233       1.37141517       0.00000000
Si       1.50498260      -2.09803797       1.68578066       0.00000000
Si       0.30965661       2.13592592      -2.73731095       0.00000000
Si      -2.39364513      -0.59119668      -2.71163377       0.00000000
Si       2.78632142       2.45645774      -0.00497088       0.00000000
Si      -1.10738673       3.48891794      -1.17820209       0.00000000
Si      -3.74843556       0.80980247      -1.04721076       0.00000000
