10
Lattice="10.86 0.0 0.0 0.0 10.86 0.0 0.0 0.0 10.86" Properties=species:S:1:pos:R:3:initial_magmoms:R:1 pbc="T T T"
Si       1.35750000       1.35750000       1.35750000       0.00000000
Si      -1.35750000      -1.35750000       1.35750000       0.00000000
Si      -1.35750000       1.35750000      -1.35750000       0.00000000
Si       1.35750000      -1.35750000      -1.35750000       0.00000000
Si      -2.66536980       0.09067014      -2.60961456       0.00000000
Si       0.02829030       2.64076104       2.65252242       0.00000000
Si       2.82348054      -0.16661412      -2.48796084       0.00000000
Si      -0.01615968      -2.72702202       2.60302254       0.00000000
Si       2.73223482       0.06765780       2.60438004       0.00000000
Si      -0.12272886       2.73378780      -2.69223744       0.00000000
