10
Lattice="10.86 0.0 0.0 0.0 10.86 0.0 0.0 0.0 10.86" Properties=species:S:1:pos:R:3:initial_magmoms:R:1 pbc="T T T"
Si      -1.34658570       1.46734890      -1.18119876       0.00000000
Si       1.52672052      -1.44272928      -1.11771120       0.00000000
Si      -1.34658570      -1.24765110       1.53380124       0.00000000
Si       1.36841430       1.46734890       1.53380124       0.00000000
Si       0.02544498      -2.71205694      -2.52379884       0.00000000
Si      -2.70408570       0.10984890      -2.53869876       0.00000000
Si      -2.70408570      -2.60515110       0.17630124       0.00000000
Si       2.75420460       0.03560994      -2.60117634       0.00000000
Si       0.01091430       2.82484890      -2.53869876       0.00000000
Si       2.60318544       0.12863670       2.91406380       0.00000000
