10
Lattice="10.86 0.0 0.0 0.0 10.86 0.0 0.0 0.0 10.86" Properties=species:S:1:pos:R:3:initial_magmoms:R:1 pbc="T T T"
Si      -1.23477114      -1.37628780       1.33473744       0.00000000
Si      -1.23477114       1.33871220      -1.38026256       0.00000000
Si       1.48022886       1.33871220       1.33473744       0.00000000
Si       1.10409276      -1.99688250      -2.82316560       0.00000000
Si      -2.54264094      -2.64311766       0.08262288       0.00000000
Si      -2.59227114      -0.01878780       2.69223744       0.00000000
Si      -2.59227114       2.69621220      -0.02276256       0.00000000
Si       0.12272886       2.69621220       2.69223744       0.00000000
Si       0.12272886      -2.73378780       2.69223744       0.00000000
Si       0.12272886       2.69621220      -2.73776256       0.00000000
