10
Lattice="10.86 0.0 0.0 0.0 10.86 0.0 0.0 0.0 10.86" Properties=species:S:1:pos:R:3:initial_magmoms:R:1 pbc="T T T"
Si       1.29712926       1.28237052       1.36779528       0.00000000
Si      -1.41787074       1.28237052      -1.34720472       0.00000000
Si       1.45029870      -1.49645370      -1.25834820       0.00000000
Si      -1.41787074      -1.43262948       1.36779528       0.00000000
Si       2.65462926       2.63987052       0.01029528       0.00000000
Si      -0.06037074       2.63987052      -2.70470472       0.00000000
Si      -0.06037074       2.63987052       2.72529528       0.00000000
Si       2.58020568      -0.00236748       2.82601092       0.00000000
Si      -2.77537074       2.63987052       0.01029528       0.00000000
Si      -2.77537074      -0.07512948      -2.70470472       0.00000000
