10
Lattice="10.86 0.0 0.0 0.0 10.86 0.0 0.0 0.0 10.86" Properties=species:S:1:pos:R:3:initial_magmoms:R:1 pbc="T T T"
Si       1.27344360      -1.23620466       1.07396712       0.00000000
Si      -1.37675478      -1.15872942      -1.76725866       0.00000000
Si       1.36484136       1.58283414      -1.59488874       0.00000000
Si      -0.00905724      -2.53481088       2.51323206       0.00000000
Si       2.70594276       0.18018912       2.51323206       0.00000000
Si       2.70594276      -2.53481088      -0.20176794       0.00000000
Si      -2.72405724      -2.53481088      -0.20176794       0.00000000
Si      -0.00905724      -2.53481088      -2.91676794       0.00000000
Si       2.70594276       2.89518912      -0.20176794       0.00000000
Si       2.70594276       0.18018912      -2.91676794       0.00000000
