10
Lattice="16.28999089631971 0.0 0.0 0.0 16.28999089631971 0.0 0.0 0.0 34.5300574570662" Properties=species:S:1:pos:R:3:initial_magmoms:R:1 pbc="T T T"
Si       1.31503957      -1.29896038       1.49064960       0.00000000
Si       1.85588386       1.15762767      -1.01260555       0.00000000
Si      -0.78572372      -1.88421121      -1.39538599       0.00000000
Si      -1.40893254       1.43120193       1.44931710       0.00000000
Si       3.23683603      -0.87695423      -1.28250717       0.00000000
Si      -2.65563882      -2.63358379       0.00868086       0.00000000
Si       2.54708485      -2.74248244       0.08538252       0.00000000
Si      -0.04463460      -2.65042765       2.84858285       0.00000000
Si       2.66279272       0.06816876       2.85203586       0.00000000
Si       0.78838387      -3.63253546      -1.19437567       0.00000000
