10
Lattice="16.28999089631971 0.0 0.0 0.0 16.28999089631971 0.0 0.0 0.0 34.5300574570662" Properties=species:S:1:pos:R:3:initial_magmoms:R:1 pbc="T T T"
Si      -1.34949618      -1.36382228      -1.37450424       0.00000000
Si       1.36809936       1.35277047      -1.37830254       0.00000000
Si       1.31030244      -1.44284507       1.38462155       0.00000000
Si      -1.43798346       1.34480466       1.43037390       0.00000000
Si       2.70855459       2.68539021       0.00863252       0.00000000
Si      -2.70562239       2.71287144      -0.00597370       0.00000000
Si      -2.70189198      -0.20342300       2.71951979       0.00000000
Si       2.71718829      -2.71535471      -0.01591837       0.00000000
Si       0.00706986       2.70583416      -2.73619781       0.00000000
Si      -2.70650205      -0.00593771      -2.73668123       0.00000000
