10
Lattice="16.28999089631971 0.0 0.0 0.0 16.28999089631971 0.0 0.0 0.0 34.5300574570662" Properties=species:S:1:pos:R:3:initial_magmoms:R:1 pbc="T T T"
Si       1.21997439      -1.53797313      -1.39273612       0.00000000
Si       1.59801642       1.86244124       0.17347911       0.00000000
Si      -1.61648928       1.09945673      -1.55986169       0.00000000
Si      -0.30126726      -1.88068215       2.01130791       0.00000000
Si      -2.41191369       1.35370128       2.06286132       0.00000000
Si       2.39570514      -0.13996533      -2.89475992       0.00000000
Si       3.50684604       0.99554934      -1.08956204       0.00000000
Si      -0.35258076       2.64768440      -2.84900757       0.00000000
Si      -3.32900811       2.07994532      -0.10179467       0.00000000
Si      -0.16752636      -2.84208537      -2.81402861       0.00000000
