10
Lattice="16.28999089631971 0.0 0.0 0.0 16.28999089631971 0.0 0.0 0.0 34.5300574570662" Properties=species:S:1:pos:R:3:initial_magmoms:R:1 pbc="T T T"
Si      -1.26763893       1.36806678      -1.43634760       0.00000000
Si      -1.26390852      -1.54822766       1.28914589       0.00000000
Si       1.43798346      -1.34480466      -1.43037390       0.00000000
Si       1.36029645       1.16377389       1.67778190       0.00000000
Si       2.65683384       2.51853174       0.03770684       0.00000000
Si       1.95059718      -0.78524316       3.02248668       0.00000000
Si      -2.59072902       2.69633709       0.04257558       0.00000000
Si      -2.62945035       0.00869886      -2.80667370       0.00000000
Si      -2.64911238      -2.80508003      -0.11553764       0.00000000
Si       0.08848728      -2.70862694      -2.80487813       0.00000000
