10
Lattice="16.28999089631971 0.0 0.0 0.0 16.28999089631971 0.0 0.0 0.0 34.5300574570662" Properties=species:S:1:pos:R:3:initial_magmoms:R:1 pbc="T T T"
Si       1.37241621      -1.43592603       1.32049920       0.00000000
Si      -1.75326012       1.26921906       1.01556409       0.00000000
Si      -0.32485518      -0.93046851      -2.22404771       0.00000000
Si       1.75400946       1.82860137      -1.01180031       0.00000000
Si      -1.76238252       3.12958593      -0.40859440       0.00000000
Si      -0.12891906       3.01470885      -2.08133491       0.00000000
Si      -0.81995715       2.18787732       2.95235609       0.00000000
Si      -0.91515591       1.01854854      -3.56875249       0.00000000
Si       3.30416586      -1.98813260      -0.03601487       0.00000000
Si       2.20154463      -0.12769731       3.17856263       0.00000000
