10
Lattice="16.28999089631971 0.0 0.0 0.0 16.28999089631971 0.0 0.0 0.0 34.5300574570662" Properties=species:S:1:pos:R:3:initial_magmoms:R:1 pbc="T T T"
Si      -1.35650088      -1.35653346      -1.35765356       0.00000000
Si       1.35931905      -1.35549090       1.35606517       0.00000000
Si       1.35881406       1.35799956      -1.35751544       0.00000000
Si      -1.35993807       1.36120869       1.35910382       0.00000000
Si      -2.71336014      -2.71316466       0.00082872       0.00000000
Si      -2.71414858       2.71345788      -0.00003453       0.00000000
Si      -2.71362567       0.00096111      -2.71544524       0.00000000
Si       0.00141723      -2.71420722      -2.71561789       0.00000000
Si       0.00112401       2.71575477      -2.71454745       0.00000000
Si       2.71616202       2.71450044       0.00134667       0.00000000
