10
Lattice="16.28999089631971 0.0 0.0 0.0 16.28999089631971 0.0 0.0 0.0 34.5300574570662" Properties=species:S:1:pos:R:3:initial_magmoms:R:1 pbc="T T T"
Si       1.34558658       1.34947989      -1.35789527       0.00000000
Si       1.31145903      -1.41713226       1.32778504       0.00000000
Si      -1.27505088       1.28759418       1.48703776       0.00000000
Si      -1.37518551      -1.35744570      -1.35540910       0.00000000
Si      -1.99293489      -0.63100944       2.85056143       0.00000000
Si      -0.31581423      -2.50890435       2.61099175       0.00000000
Si      -2.71018359       2.67351480       0.00970295       0.00000000
Si       2.67330303      -2.71182888      -0.02897073       0.00000000
Si       2.69506647       2.71720458       0.00576652       0.00000000
Si       2.70114264      -0.00298107      -2.71648114       0.00000000
