10
Lattice="16.28999089631971 0.0 0.0 0.0 16.28999089631971 0.0 0.0 0.0 34.5300574570662" Properties=species:S:1:pos:R:3:initial_magmoms:R:1 pbc="T T T"
Si       1.75005099      -0.50135733       1.58372197       0.00000000
Si       1.47554820       0.18029772      -1.90664725       0.00000000
Si      -1.65258792      -1.78360839       0.26342996       0.00000000
Si      -1.36129014       1.95227505       0.61881351       0.00000000
Si       2.31739911       2.02144239      -0.40883611       0.00000000
Si       0.58213944      -1.51454646       3.40746250       0.00000000
Si      -1.52236566      -2.33652357       2.56717309       0.00000000
Si       3.24873099      -1.96771797       0.39937487       0.00000000
Si      -3.72829230      -0.81876798      -0.38387086       0.00000000
Si      -0.12707829      -1.51611030      -3.52420869       0.00000000
