10
Lattice="16.28999089631971 0.0 0.0 0.0 16.28999089631971 0.0 0.0 0.0 34.5300574570662" Properties=species:S:1:pos:R:3:initial_magmoms:R:1 pbc="T T T"
Si      -1.37023335      -1.33139799       1.39844739       0.00000000
Si       1.34762283       1.38482919       1.39696260       0.00000000
Si      -1.48908519       1.28806659      -1.36409687       0.00000000
Si       1.29974652      -1.61334531      -1.62215049       0.00000000
Si       2.67841809      -2.70011637       0.03312816       0.00000000
Si      -2.72113047      -2.67709860       0.02134995       0.00000000
Si       2.68534134       2.72191239       0.00637080       0.00000000
Si      -2.72113047       2.73158865       0.04117021       0.00000000
Si      -0.01187541      -2.69395875       2.75903600       0.00000000
Si       2.70264132       0.02182860       2.75772386       0.00000000
