10
Lattice="16.28999089631971 0.0 0.0 0.0 16.28999089631971 0.0 0.0 0.0 34.5300574570662" Properties=species:S:1:pos:R:3:initial_magmoms:R:1 pbc="T T T"
Si      -1.35441576       1.35433431       1.35506380       0.00000000
Si       1.35418770      -1.35438318       1.36051955       0.00000000
Si       1.35853713       1.35609363      -1.35647954       0.00000000
Si      -1.35682668      -1.35835794      -1.35665219       0.00000000
Si       0.01918962       2.67657732       2.72563161       0.00000000
Si      -0.03539817      -2.70572013       2.71765516       0.00000000
Si      -2.69150873       0.00824274       2.73554174       0.00000000
Si      -2.71327869       2.71397916       0.00048342       0.00000000
Si      -2.71437012      -0.00039096      -2.71409856       0.00000000
Si      -0.00066789       2.71477737      -2.71385685       0.00000000
