10
Lattice="16.28999089631971 0.0 0.0 0.0 16.28999089631971 0.0 0.0 0.0 34.5300574570662" Properties=species:S:1:pos:R:3:initial_magmoms:R:1 pbc="T T T"
Si       1.80511119      -0.39390849      -1.43538076       0.00000000
Si      -1.44638910      -1.84790502      -0.15341713       0.00000000
Si       0.96593184      -0.26402832       2.15985630       0.00000000
Si      -1.47100329       1.90481969      -0.27762182       0.00000000
Si      -2.61319293      -1.55716110       1.89017640       0.00000000
Si       0.95096133      -2.06293302      -2.91306087       0.00000000
Si       3.21476634       0.33056240       1.86538381       0.00000000
Si       2.48658705       1.72305424      -2.27888148       0.00000000
Si       3.73482459      -0.97718823      -0.10680153       0.00000000
Si      -2.49728958       0.52956414       2.94375810       0.00000000
