10
Lattice="16.28999089631971 0.0 0.0 0.0 16.28999089631971 0.0 0.0 0.0 34.5300574570662" Properties=species:S:1:pos:R:3:initial_magmoms:R:1 pbc="T T T"
Si       0.47822553       1.59262673       1.64421866       0.00000000
Si      -1.72501326      -1.58980626       0.05483376       0.00000000
Si      -0.06556725       1.50471774      -1.84601243       0.00000000
Si       1.77471405      -1.55292570      -0.52648008       0.00000000
Si      -1.18915371      -2.09142423      -2.21700358       0.00000000
Si       1.09217934      -1.62883710      -2.75363550       0.00000000
Si      -0.58033125      -0.90986166       3.50407766       0.00000000
Si       3.65498730      -0.39902355       0.32499708       0.00000000
Si      -1.15013916      -2.86941834       2.07135571       0.00000000
Si       1.74434949       3.27524201       0.63866830       0.00000000
