10
Lattice="16.28999089631971 0.0 0.0 0.0 16.28999089631971 0.0 0.0 0.0 34.5300574570662" Properties=species:S:1:pos:R:3:initial_magmoms:R:1 pbc="T T T"
Si       1.72501326       1.58980626      -0.05483376       0.00000000
Si      -2.22451353       0.83206062      -0.18963918       0.00000000
Si       0.53585955      -0.50161797      -2.27183734       0.00000000
Si       0.57487410      -1.27961208       2.01652195       0.00000000
Si       3.49972731       0.03688056      -0.58131384       0.00000000
Si       1.14468201       0.67994460       3.44924390       0.00000000
Si      -1.89594423       3.03555746      -0.95741544       0.00000000
Si       0.27129366      -2.77576713      -2.47031622       0.00000000
Si      -3.53581943       0.44597133       1.76614437       0.00000000
Si       2.81719260      -0.03903084      -2.80846926       0.00000000
