10
Lattice="16.28999089631971 0.0 0.0 0.0 16.28999089631971 0.0 0.0 0.0 34.5300574570662" Properties=species:S:1:pos:R:3:initial_magmoms:R:1 pbc="T T T"
Si      -1.23766533       1.39795893       1.37343726       0.00000000
Si       0.89334360       1.83493818      -1.25639445       0.00000000
Si       1.50539148      -1.31764923       1.33589961       0.00000000
Si      -1.68884946      -1.13757957      -1.45747107       0.00000000
Si      -2.56417632       0.03676653       2.71519317       0.00000000
Si      -2.63722068       2.66799249      -0.03550728       0.00000000
Si       0.15006348      -2.67590617       2.70770014       0.00000000
Si       0.14791320       2.75597478       2.70942664       0.00000000
Si       2.86899480      -2.62057067      -0.16115877       0.00000000
Si      -2.74620078      -2.76804078      -0.14583433       0.00000000
