10
Lattice="16.28999089631971 0.0 0.0 0.0 16.28999089631971 0.0 0.0 0.0 34.5300574570662" Properties=species:S:1:pos:R:3:initial_magmoms:R:1 pbc="T T T"
Si      -1.35672894      -1.35580741      -1.35765356       0.00000000
Si       1.35987291      -1.35544596       1.35761903       0.00000000
Si       1.35793440       1.35852410      -1.35730826       0.00000000
Si      -1.35488817       1.36082099       1.35820604       0.00000000
Si       2.69205282      -0.00664143       2.73367712       0.00000000
Si      -2.71443528      -2.71333149       0.00044889       0.00000000
Si      -0.00579924      -2.70730419       2.72059022       0.00000000
Si      -2.71412577       0.00164855      -2.71496181       0.00000000
Si       2.71384884      -2.71572612      -0.00017265       0.00000000
Si       0.00086337      -2.71404825      -2.71558336       0.00000000
