10
Lattice="16.28999089631971 0.0 0.0 0.0 16.28999089631971 0.0 0.0 0.0 34.5300574570662" Properties=species:S:1:pos:R:3:initial_magmoms:R:1 pbc="T T T"
Si       1.86823494      -0.19973741       1.37405534       0.00000000
Si      -2.24883450      -0.59459072       0.29447249       0.00000000
Si      -0.28843074       2.36890956       0.01374297       0.00000000
Si       0.52005825      -1.30775063      -1.97218533       0.00000000
Si       0.10094913       2.70072057      -2.28620185       0.00000000
Si      -1.40965515      -0.72447089      -3.30076457       0.00000000
Si      -3.21476634      -0.33056240      -1.86538381       0.00000000
Si       1.80247221       1.49492499       2.93177617       0.00000000
Si       0.51530157      -3.54436763      -1.17198534       0.00000000
Si       3.78450909       0.42741523       0.16166982       0.00000000
