10
Lattice="16.28999089631971 0.0 0.0 0.0 16.28999089631971 0.0 0.0 0.0 34.5300574570662" Properties=species:S:1:pos:R:3:initial_magmoms:R:1 pbc="T T T"
Si       0.38937987       0.33181101      -2.29994482       0.00000000
Si       0.28843074      -2.36890956      -0.01374297       0.00000000
Si       1.46671902       0.96889662       1.63817590       0.00000000
Si      -2.00753073       1.13319756       0.72323246       0.00000000
Si      -1.96040376      -2.96350028       0.28072952       0.00000000
Si      -0.28701351       2.54166354      -2.55256686       0.00000000
Si       2.15666568      -2.56864697       1.36031237       0.00000000
Si       2.09090295      -0.87398456       2.91803320       0.00000000
Si       2.69490357       0.21501171      -2.72911915       0.00000000
Si       0.16451271       3.79555371      -0.58808174       0.00000000
