10
Lattice="16.28999089631971 0.0 0.0 0.0 16.28999089631971 0.0 0.0 0.0 34.5300574570662" Properties=species:S:1:pos:R:3:initial_magmoms:R:1 pbc="T T T"
Si       0.62418393      -1.84288118       1.27985729       0.00000000
Si       2.08041219       0.74095065      -0.75123635       0.00000000
Si      -1.07303859       1.88740827       1.02250463       0.00000000
Si      -1.46671902      -0.96889662      -1.63817590       0.00000000
Si       1.06085367       2.79930618      -1.54787975       0.00000000
Si      -3.47424975       0.16430094      -0.91494344       0.00000000
Si       0.68994666      -3.53754359      -0.27786353       0.00000000
Si       3.43231929       0.22369428       1.28672878       0.00000000
Si       2.63492379      -0.76131315      -2.44973630       0.00000000
Si       0.40625631       3.66279021       0.52585854       0.00000000
