10
Lattice="16.28999089631971 0.0 0.0 0.0 16.28999089631971 0.0 0.0 0.0 34.5300574570662" Properties=species:S:1:pos:R:3:initial_magmoms:R:1 pbc="T T T"
Si       1.61508834       0.65568227      -1.47716215       0.00000000
Si      -1.95856299       1.26427016       0.06073841       0.00000000
Si       1.17872811       1.17322535       1.74646222       0.00000000
Si      -0.04792518      -2.40999540      -0.25293281       0.00000000
Si      -3.22468695      -0.41834512       1.06628877       0.00000000
Si      -0.35911305      -2.90499963       2.05740556       0.00000000
Si       1.68085107      -1.03898013      -3.03488298       0.00000000
Si      -1.68430455       2.95895144       1.62909449       0.00000000
Si       1.75954806      -2.95118178      -1.67501949       0.00000000
Si       0.99090441       2.49856346      -2.75701945       0.00000000
