10
Lattice="16.28999089631971 0.0 0.0 0.0 16.28999089631971 0.0 0.0 0.0 34.5300574570662" Properties=species:S:1:pos:R:3:initial_magmoms:R:1 pbc="T T T"
Si      -1.26633573       1.34118828       1.41818824       0.00000000
Si       1.44648684      -1.38823380       1.36554023       0.00000000
Si      -1.88165790      -0.94596030      -1.21126019       0.00000000
Si       1.31398398       1.51207038      -1.45418726       0.00000000
Si      -0.52683489       2.50515765      -2.69309189       0.00000000
Si      -2.70819621       2.59467120       0.10136304       0.00000000
Si      -2.62708830      -0.02492370       2.75456091       0.00000000
Si       0.09231543       2.68760565       2.75542416       0.00000000
Si       0.09053982      -2.73882141       2.75293799       0.00000000
Si       2.84998437      -2.67502977      -0.17052678       0.00000000
