10
Lattice="16.28999089631971 0.0 0.0 0.0 16.28999089631971 0.0 0.0 0.0 34.5300574570662" Properties=species:S:1:pos:R:3:initial_magmoms:R:1 pbc="T T T"
Si       1.34591238       1.34917038      -1.37257055       0.00000000
Si      -1.36966320      -1.36578618      -1.35982895       0.00000000
Si      -1.38109878       1.42728093       1.29332402       0.00000000
Si       1.41040449      -1.34921925       1.37868237       0.00000000
Si      -0.16337241      -2.71736748       2.56441068       0.00000000
Si       2.67206499       2.70418887      -0.01046261       0.00000000
Si      -2.84612364       0.01343925       2.55584722       0.00000000
Si       2.70329292      -0.00783549      -2.72583879       0.00000000
Si      -0.01107720       2.70537804      -2.72552802       0.00000000
Si       2.71604799      -2.72528442      -0.01073885       0.00000000
