10
Lattice="16.28999089631971 0.0 0.0 0.0 16.28999089631971 0.0 0.0 0.0 34.5300574570662" Properties=species:S:1:pos:R:3:initial_magmoms:R:1 pbc="T T T"
Si      -0.97150302       1.99791963      -0.80900517       0.00000000
Si      -0.45152622      -1.25389017      -1.96448513       0.00000000
Si       2.36305998      -0.02735091       0.67837789       0.00000000
Si      -1.57793085      -0.41115960       1.86610894       0.00000000
Si       1.70846262       0.83613312       2.75211618       0.00000000
Si       0.22916772      -0.93924882       3.24876227       0.00000000
Si      -2.79663462      -1.14816807      -1.93806962       0.00000000
Si      -2.17204344      -2.66235615       1.31131419       0.00000000
Si      -3.07600812       1.17594252      -1.64929459       0.00000000
Si       1.30220631      -2.82665709       2.22625764       0.00000000
