10
Lattice="16.28999089631971 0.0 0.0 0.0 16.28999089631971 0.0 0.0 0.0 34.5300574570662" Properties=species:S:1:pos:R:3:initial_magmoms:R:1 pbc="T T T"
Si      -1.34558658      -1.34947989       1.35789527       0.00000000
Si       1.35555606      -1.35246096      -1.35858587       0.00000000
Si      -1.35915615       1.36169739      -1.35647954       0.00000000
Si       1.34947989       1.36772469       1.36366179       0.00000000
Si      -0.05740596       2.64023433       2.76420170       0.00000000
Si       2.70927135      -2.70798444       0.00020718       0.00000000
Si      -0.00159642      -2.71106325      -2.71489275       0.00000000
Si      -2.72077209      -2.70692559       0.00248617       0.00000000
Si       2.71329498       0.00387702      -2.71506541       0.00000000
Si      -2.71642266       0.00355122      -2.71451292       0.00000000
