10
Lattice="16.28999089631971 0.0 0.0 0.0 16.28999089631971 0.0 0.0 0.0 34.5300574570662" Properties=species:S:1:pos:R:3:initial_magmoms:R:1 pbc="T T T"
Si      -1.05011856      -1.81791513       1.08814631       0.00000000
Si      -1.43107650       1.27176030      -1.40288796       0.00000000
Si       1.29518532      -1.44010116      -1.39342672       0.00000000
Si       1.33247313       1.20708900       1.66597261       0.00000000
Si       2.54565459       2.60032383       0.05828677       0.00000000
Si      -2.60793126      -0.64272195       2.55546739       0.00000000
Si      -2.83796235       2.54426994      -0.00234805       0.00000000
Si      -0.06540435       2.62361853      -2.76585915       0.00000000
Si       2.64531681      -0.09480780      -2.76568650       0.00000000
Si       2.54379753      -2.88877086       0.02752047       0.00000000
