10
Lattice="16.28999089631971 0.0 0.0 0.0 16.28999089631971 0.0 0.0 0.0 34.5300574570662" Properties=species:S:1:pos:R:3:initial_magmoms:R:1 pbc="T T T"
Si       0.35675100       1.36005603       2.00871816       0.00000000
Si       1.69585416      -0.92186739      -1.57923306       0.00000000
Si      -1.36344042       1.55082822      -1.44235584       0.00000000
Si      -1.16683641      -2.09665332       1.26632150       0.00000000
Si      -2.24455023      -2.77167834      -0.68973828       0.00000000
Si       0.98701110       3.44861648       1.08213808       0.00000000
Si       0.36338103      -2.12895639      -3.24520567       0.00000000
Si      -3.27227004       2.41772012      -0.17931469       0.00000000
Si      -2.47458132       0.41531355      -3.24755372       0.00000000
Si       3.17918898      -2.55583584      -0.52658367       0.00000000
