10
Lattice="16.28999089631971 0.0 0.0 0.0 16.28999089631971 0.0 0.0 0.0 34.5300574570662" Properties=species:S:1:pos:R:3:initial_magmoms:R:1 pbc="T T T"
Si      -1.07771382      -0.67502502      -1.95605979       0.00000000
Si       0.95985567      -1.97519508       1.04353345       0.00000000
Si      -1.94378796       0.22292865       1.46473133       0.00000000
Si       1.16683641       2.09665332      -1.26632150       0.00000000
Si       3.08504907      -1.44594927       0.06985435       0.00000000
Si      -1.08963810       1.89195318       2.94241143       0.00000000
Si       0.11800476      -3.81633975      -0.45427769       0.00000000
Si       1.52358741       3.45670935       0.74239665       0.00000000
Si       0.48009888      -1.85021820      -3.42338087       0.00000000
Si      -2.71883358      -2.04436242       2.07118306       0.00000000
