10
Lattice="16.28999089631971 0.0 0.0 0.0 16.28999089631971 0.0 0.0 0.0 34.5300574570662" Properties=species:S:1:pos:R:3:initial_magmoms:R:1 pbc="T T T"
Si       0.99859329      -2.05058520       0.27738011       0.00000000
Si       1.35135324       1.84150698      -0.57430424       0.00000000
Si      -0.76087332       1.02418488       2.05923566       0.00000000
Si      -1.73128491      -0.97282251      -1.49342582       0.00000000
Si      -2.49196275       2.22198762       0.93528166       0.00000000
Si      -0.19344375       3.10540247      -1.80436916       0.00000000
Si      -3.54463884       0.41480856      -0.67789447       0.00000000
Si       2.39195844      -1.84611312       2.25585582       0.00000000
Si       3.32811216      -1.85997591      -0.04654654       0.00000000
Si      -1.91119167      -0.53302509       3.45601667       0.00000000
