10
Lattice="16.28999089631971 0.0 0.0 0.0 16.28999089631971 0.0 0.0 0.0 34.5300574570662" Properties=species:S:1:pos:R:3:initial_magmoms:R:1 pbc="T T T"
Si      -1.73108943       1.19780274      -1.12395400       0.00000000
Si      -1.15031835      -1.55720997       1.39678101       0.00000000
Si       0.76087332      -1.02418488      -2.05923566       0.00000000
Si       1.70644266       1.45534113       1.32994459       0.00000000
Si       2.11222656       0.81732210      -2.63353989       0.00000000
Si      -2.38948236       0.02627577       2.80752111       0.00000000
Si       0.34287192      -2.67172290       2.83977220       0.00000000
Si      -2.78376552      -0.60937632      -2.73713012       0.00000000
Si      -0.88627374       3.08103263      -2.32366699       0.00000000
Si       0.34283934       2.75826257       2.82700298       0.00000000
