10
Lattice="16.28999089631971 0.0 0.0 0.0 16.28999089631971 0.0 0.0 0.0 34.5300574570662" Properties=species:S:1:pos:R:3:initial_magmoms:R:1 pbc="T T T"
Si      -0.68843169       1.45802016       1.69756763       0.00000000
Si       2.32768692      -0.35578989       0.16691839       0.00000000
Si      -0.57285414      -2.18241691       0.74705821       0.00000000
Si      -1.35190710       0.51725637      -2.03796513       0.00000000
Si      -2.80813536      -2.06657546      -0.00687149       0.00000000
Si       0.56407383      -3.40701277      -0.90240903       0.00000000
Si      -3.43231929      -0.22369428      -1.28672878       0.00000000
Si       2.64609614      -2.35701150      -1.07467958       0.00000000
Si       3.29521029       1.41905448      -0.93517807       0.00000000
Si      -1.18179063       3.55501557       0.74871565       0.00000000
