10
Lattice="16.28999089631971 0.0 0.0 0.0 16.28999089631971 0.0 0.0 0.0 34.5300574570662" Properties=species:S:1:pos:R:3:initial_magmoms:R:1 pbc="T T T"
Si       1.13692797      -1.22459586      -1.64946724       0.00000000
Si      -2.23528122       0.11584145      -0.75392970       0.00000000
Si       0.57285414       2.18241691      -0.74705821       0.00000000
Si       0.78099147      -0.87041868       2.15315747       0.00000000
Si       2.90054106       1.82662702      -0.58013982       0.00000000
Si      -2.16951849      -1.57882095      -2.31165052       0.00000000
Si      -0.25324434      -0.95166832      -3.52403604       0.00000000
Si      -2.67164145       0.63338452       2.46969468       0.00000000
Si       3.21895028      -0.17459459      -1.82173779       0.00000000
Si      -0.11557755       3.64043707       0.95050942       0.00000000
