10
Lattice="16.28999089631971 0.0 0.0 0.0 16.28999089631971 0.0 0.0 0.0 34.5300574570662" Properties=species:S:1:pos:R:3:initial_magmoms:R:1 pbc="T T T"
Si       1.97749197      -0.55622205       1.13648842       0.00000000
Si      -1.48022343      -1.35294966       1.23562427       0.00000000
Si       0.20702961       1.92787263       1.37930392       0.00000000
Si       0.10301796      -0.14226057      -2.40760960       0.00000000
Si       1.50623856       0.40531149       3.37496970       0.00000000
Si       1.12172940       1.90175976      -3.13543456       0.00000000
Si      -2.14819488       0.21914937      -3.25984643       0.00000000
Si       1.25468838       3.73409154       0.31273891       0.00000000
Si      -2.13482079      -0.48946563       3.30936256       0.00000000
Si      -0.46066491      -3.41130519       2.03226767       0.00000000
