10
Lattice="16.28999089631971 0.0 0.0 0.0 16.28999089631971 0.0 0.0 0.0 34.5300574570662" Properties=species:S:1:pos:R:3:initial_magmoms:R:1 pbc="T T T"
Si       0.40361733       2.19379059       0.86515107       0.00000000
Si       2.11240316      -0.87467526       0.80330771       0.00000000
Si      -1.79678700      -0.77885748       1.44397875       0.00000000
Si       0.47125341      -0.96153354      -2.23848129       0.00000000
Si      -1.29920895       1.52256114      -1.99566579       0.00000000
Si       2.37720200       0.36145881      -2.65394717       0.00000000
Si       3.64082219       0.19047897      -0.63901360       0.00000000
Si      -1.50623856      -0.40531149      -3.37496970       0.00000000
Si       1.31748633       1.86354342       2.97459346       0.00000000
Si      -3.64105935      -0.89477712      -0.06560715       0.00000000
