10
Lattice="16.28999089631971 0.0 0.0 0.0 16.28999089631971 0.0 0.0 0.0 34.5300574570662" Properties=species:S:1:pos:R:3:initial_magmoms:R:1 pbc="T T T"
Si      -1.35690813       1.35764118       1.35792980       0.00000000
Si      -1.35917244      -1.35759231      -1.35682484       0.00000000
Si       1.35812988      -1.35780408       1.35803339       0.00000000
Si       1.35813707       1.35966114      -1.35689390       0.00000000
Si      -2.71150308      -0.00099369      -2.71551430       0.00000000
Si      -2.71311579      -0.00087966       2.71547977       0.00000000
Si      -2.71419093      -2.71451673       0.00037983       0.00000000
Si       0.00125433      -2.71409319       2.71516900       0.00000000
Si      -2.71498914       2.71508688       0.00037983       0.00000000
Si       2.71552901      -2.71472850       0.00006906       0.00000000
