10
Lattice="16.28999089631971 0.0 0.0 0.0 16.28999089631971 0.0 0.0 0.0 34.5300574570662" Properties=species:S:1:pos:R:3:initial_magmoms:R:1 pbc="T T T"
Si       1.35541012      -1.35746199      -1.36452504       0.00000000
Si      -1.36016613       1.36190916      -1.36383444       0.00000000
Si      -1.38956958      -1.35729909       1.35054036       0.00000000
Si       1.37862011       1.36910934       1.37039516       0.00000000
Si      -0.06548580       2.69786835       2.71299360       0.00000000
Si       2.70962063      -2.70971118      -0.00538669       0.00000000
Si      -2.71572219      -2.71231758      -0.01156758       0.00000000
Si       2.71571309       2.71520091      -0.01008278       0.00000000
Si      -2.71902906       2.71456560      -0.00624994       0.00000000
Si      -0.00146610      -2.71303434      -2.72197142       0.00000000
