10
Lattice="16.28999089631971 0.0 0.0 0.0 16.28999089631971 0.0 0.0 0.0 34.5300574570662" Properties=species:S:1:pos:R:3:initial_magmoms:R:1 pbc="T T T"
Si      -0.15048702       1.99813140      -1.27792361       0.00000000
Si       1.17835344       0.11396484       2.08685972       0.00000000
Si       1.04539446      -1.71836694      -1.36131375       0.00000000
Si      -2.47023189       0.08980677       0.04212669       0.00000000
Si       0.13069467      -1.69225407       3.15342473       0.00000000
Si      -1.03066830       1.11742884      -3.26761569       0.00000000
Si       0.04194675      -1.05130773      -3.45117758       0.00000000
Si       0.39441348       2.07516681       3.12935727       0.00000000
Si       0.02668302      -3.76238727      -0.63348879       0.00000000
Si       1.95256827       2.70172908      -1.93292464       0.00000000
