10
Lattice="16.28999089631971 0.0 0.0 0.0 16.28999089631971 0.0 0.0 0.0 34.5300574570662" Properties=species:S:1:pos:R:3:initial_magmoms:R:1 pbc="T T T"
Si       1.35298224       1.34245890      -1.36893108       0.00000000
Si      -1.35371529       1.35250983       1.36141734       0.00000000
Si       1.36102040      -1.35953082       1.35951818       0.00000000
Si      -1.34102538      -1.36984239      -1.38661739       0.00000000
Si      -2.71023246       2.70976005      -0.00241711       0.00000000
Si       0.00302994       2.71148679       2.71679191       0.00000000
Si      -2.70861975      -2.72018565       0.00089778       0.00000000
Si      -2.71210581      -0.00410508       2.71679191       0.00000000
Si       2.72097801       2.70987408      -0.00024171       0.00000000
Si       2.71823804      -0.00348606       2.71717174       0.00000000
