10
Lattice="16.28999089631971 0.0 0.0 0.0 16.28999089631971 0.0 0.0 0.0 34.5300574570662" Properties=species:S:1:pos:R:3:initial_magmoms:R:1 pbc="T T T"
Si      -1.27887903       1.37209923      -1.44808783       0.00000000
Si       1.06336233       1.71570257       1.29373839       0.00000000
Si       1.44244692      -1.32501231      -1.45451042       0.00000000
Si      -1.21318146      -1.39323483       1.60768584       0.00000000
Si      -2.54565459      -2.60032383      -0.05828677       0.00000000
Si      -2.83392243       2.49345233       0.03801761       0.00000000
Si      -2.61105894       0.02329470      -2.82414592       0.00000000
Si       2.75320548      -2.71182888      -0.10472972       0.00000000
Si       0.09966222      -2.69513163      -2.82397327       0.00000000
Si       0.10173105       2.73913811      -2.81962248       0.00000000
