10
Lattice="16.28999089631971 0.0 0.0 0.0 16.28999089631971 0.0 0.0 0.0 34.5300574570662" Properties=species:S:1:pos:R:3:initial_magmoms:R:1 pbc="T T T"
Si      -0.68012379       1.73369976       1.38265333       0.00000000
Si      -0.27451908      -1.79835084       1.44463482       0.00000000
Si      -1.67783742      -0.04437396      -1.68820998       0.00000000
Si       2.37251374       0.38374353      -0.25869934       0.00000000
Si       2.24914729       0.72617562      -2.58958311       0.00000000
Si       0.86201793      -0.88964577       3.30532254       0.00000000
Si      -0.81941958      -1.87538625      -2.96264606       0.00000000
Si       0.71004852       1.46077221       3.25722214       0.00000000
Si      -1.42066719       2.01266601      -2.74935377       0.00000000
Si       0.50942088      -3.75955281       0.40213727       0.00000000
