10
Lattice="16.28999089631971 0.0 0.0 0.0 16.28999089631971 0.0 0.0 0.0 34.5300574570662" Properties=species:S:1:pos:R:3:initial_magmoms:R:1 pbc="T T T"
Si       0.27451908       1.79835084      -1.44463482       0.00000000
Si       0.78393996      -1.96120197      -1.04249755       0.00000000
Si       1.13653701       0.90870507       1.86068772       0.00000000
Si      -2.26468467      -0.48154869       0.58362736       0.00000000
Si      -1.83334176      -2.65051332       1.35889664       0.00000000
Si      -2.24318187       0.99269631       2.51026752       0.00000000
Si      -0.40560471       3.53205060      -0.06198149       0.00000000
Si      -0.24120603       0.27943866       3.61989154       0.00000000
Si       3.37097508       0.24457806       1.67691865       0.00000000
Si      -0.39441348      -2.07516681      -3.12935727       0.00000000
