10
Lattice="16.28999089631971 0.0 0.0 0.0 16.28999089631971 0.0 0.0 0.0 34.5300574570662" Properties=species:S:1:pos:R:3:initial_magmoms:R:1 pbc="T T T"
Si       1.05451686      -2.08907847      -0.09744388       0.00000000
Si      -2.32951887      -0.19060929       0.32392665       0.00000000
Si       0.26516862       1.07851203      -2.22232121       0.00000000
Si      -0.93615372       0.01386279       2.30240237       0.00000000
Si       2.62596170       0.63734625      -2.26123661       0.00000000
Si       2.78696229      -1.69202601      -1.73910732       0.00000000
Si      -3.32811216       1.85997591       0.04654654       0.00000000
Si       0.43437285       1.58548941       3.46613398       0.00000000
Si       2.30428796       2.33486199       2.06206712       0.00000000
Si       3.19162544       2.21496759      -0.37838058       0.00000000
