10
Lattice="16.28999089631971 0.0 0.0 0.0 16.28999089631971 0.0 0.0 0.0 34.5300574570662" Properties=species:S:1:pos:R:3:initial_magmoms:R:1 pbc="T T T"
Si      -0.96752337      -1.77484437       1.10209646       0.00000000
Si       2.32585688      -0.09655083      -0.29965201       0.00000000
Si      -0.56781076       2.04014331       1.04322268       0.00000000
Si      -0.96630162      -0.05905125      -2.20899260       0.00000000
Si       0.96060827       3.10529754      -0.39909863       0.00000000
Si       2.35205120      -1.05215481      -2.40550327       0.00000000
Si      -2.20896051       1.95328503      -1.99856631       0.00000000
Si      -3.29521029      -1.41905448       0.93517807       0.00000000
Si       3.04523957       2.10113307      -0.86929468       0.00000000
Si      -0.64911415      -3.77606598      -0.13950151       0.00000000
