10
Lattice="16.28999089631971 0.0 0.0 0.0 16.28999089631971 0.0 0.0 0.0 34.5300574570662" Properties=species:S:1:pos:R:3:initial_magmoms:R:1 pbc="T T T"
Si       0.89212999       1.77469776      -1.22455841       0.00000000
Si      -0.81242954      -1.58653197      -1.60156853       0.00000000
Si      -1.30888425       1.38939039       1.44971074       0.00000000
Si       1.41878569      -1.30041441       1.44064660       0.00000000
Si      -2.49424239      -2.65041558      -0.10728150       0.00000000
Si       1.54223131      -2.09668590      -2.57863159       0.00000000
Si       2.65083097       2.66475078       0.05519978       0.00000000
Si      -2.55189270       2.77364943      -0.02150188       0.00000000
Si      -0.68197759       3.52302201      -1.42556873       0.00000000
Si      -2.66186649       0.04693149       2.81864182       0.00000000
