10
Lattice="16.28999089631971 0.0 0.0 0.0 16.28999089631971 0.0 0.0 0.0 34.5300574570662" Properties=species:S:1:pos:R:3:initial_magmoms:R:1 pbc="T T T"
Si       1.35682668       1.35835794       1.35665219       0.00000000
Si       1.35738054      -1.35767376      -1.35723920       0.00000000
Si      -1.35754344       1.35796698      -1.35744638       0.00000000
Si      -1.35789205      -1.35997065       1.35727373       0.00000000
Si       0.00241092       2.71269225       2.71171599       0.00000000
Si       2.71101438       0.00397476       2.71717174       0.00000000
Si      -0.00368154      -2.71221984       2.71641208       0.00000000
Si       2.71412577      -0.00275301      -2.71492728       0.00000000
Si       0.00213399      -2.71373481      -2.71534165       0.00000000
Si      -2.71455468       2.71472850      -0.00041436       0.00000000
