10
Lattice="16.28999089631971 0.0 0.0 0.0 16.28999089631971 0.0 0.0 0.0 34.5300574570662" Properties=species:S:1:pos:R:3:initial_magmoms:R:1 pbc="T T T"
Si       1.35421051      -1.35224919       1.35913835       0.00000000
Si      -1.35687622      -1.35557235      -1.35744638       0.00000000
Si       1.35789205       1.35997065      -1.35727373       0.00000000
Si      -1.35541012       1.35746199       1.36452504       0.00000000
Si       2.67932056       0.01260846       2.71703362       0.00000000
Si      -2.71375177      -2.71186146      -0.00031077       0.00000000
Si       2.71414858      -2.71345788       0.00003453       0.00000000
Si       0.00052291      -2.71249677      -2.71541071       0.00000000
Si       2.71527259       0.00229689      -2.71451292       0.00000000
Si      -2.71500610       0.00223173      -2.71547977       0.00000000
