10
Lattice="16.28999089631971 0.0 0.0 0.0 16.28999089631971 0.0 0.0 0.0 34.5300574570662" Properties=species:S:1:pos:R:3:initial_magmoms:R:1 pbc="T T T"
Si       1.77880610       1.13551074      -0.99191098       0.00000000
Si       0.40731353      -2.29877964       0.01609102       0.00000000
Si      -2.22143865       0.66854160      -0.39219261       0.00000000
Si       0.21548412       0.55245906       2.32622221       0.00000000
Si       1.08024203       3.20360769       0.06640134       0.00000000
Si      -3.26909742      -1.13767731       0.67437240       0.00000000
Si       1.67093372      -2.46975948       2.03102458       0.00000000
Si       0.36559647       2.87432163       2.32722358       0.00000000
Si       2.23427450      -0.48053871       3.06886057       0.00000000
Si       3.85030766      -0.04544910      -0.46767536       0.00000000
