10
Lattice="16.28999089631971 0.0 0.0 0.0 16.28999089631971 0.0 0.0 0.0 34.5300574570662" Properties=species:S:1:pos:R:3:initial_magmoms:R:1 pbc="T T T"
Si       0.15011235       2.32186257       0.00100137       0.00000000
Si      -1.78175526      -1.01890692       1.20896705       0.00000000
Si       2.01879038      -1.03299777       0.74263836       0.00000000
Si      -0.21548412      -0.55245906      -2.32622221       0.00000000
Si       1.45544960      -3.02221854      -0.29519763       0.00000000
Si       0.86475791       2.65114863      -2.25982087       0.00000000
Si      -2.08432572       2.98598958       0.18477044       0.00000000
Si      -2.43692277       0.11608254      -2.71841482       0.00000000
Si       0.19182941      -2.85123870      -2.31013120       0.00000000
Si      -0.86788626      -1.34915409       3.31840944       0.00000000
