10
Lattice="16.28999089631971 0.0 0.0 0.0 16.28999089631971 0.0 0.0 0.0 34.5300574570662" Properties=species:S:1:pos:R:3:initial_magmoms:R:1 pbc="T T T"
Si      -1.39903407       1.29876912       1.32681820       0.00000000
Si      -1.37360538      -1.32224301      -1.37056781       0.00000000
Si       1.33856559       1.39522221      -1.36252230       0.00000000
Si       1.43513271      -1.38592062       1.47733480       0.00000000
Si      -0.01383021       2.55562148       2.73150172       0.00000000
Si      -2.71069835      -2.66833458       0.00991013       0.00000000
Si       2.71018359      -2.67351480      -0.00970295       0.00000000
Si      -0.01918962      -2.67657732      -2.72563161       0.00000000
Si       2.69661402       0.03766248      -2.72407776       0.00000000
Si       2.68806177       2.75904449       0.01198194       0.00000000
