10
Lattice="16.28999089631971 0.0 0.0 0.0 16.28999089631971 0.0 0.0 0.0 34.5300574570662" Properties=species:S:1:pos:R:3:initial_magmoms:R:1 pbc="T T T"
Si       2.00864236       0.06208119      -1.23427759       0.00000000
Si       0.12336645      -0.34243209       2.33088377       0.00000000
Si      -0.96551158      -1.89796419      -1.02806398       0.00000000
Si      -1.37932645       1.84893033      -0.68400629       0.00000000
Si      -2.24914729      -0.72617562       2.58958311       0.00000000
Si      -1.13228860      -1.10043837      -3.15953655       0.00000000
Si      -1.63068115       1.19490638      -3.01216219       0.00000000
Si       0.76172431       1.77448014       3.27517778       0.00000000
Si       1.25234001      -1.07862606      -3.44402986       0.00000000
Si       3.60963985      -1.42890993      -0.25662753       0.00000000
