10
Lattice="16.28999089631971 0.0 0.0 0.0 16.28999089631971 0.0 0.0 0.0 34.5300574570662" Properties=species:S:1:pos:R:3:initial_magmoms:R:1 pbc="T T T"
Si      -0.12336645       0.34243209      -2.33088377       0.00000000
Si       0.63835786       2.11691223       0.94429401       0.00000000
Si      -2.37251374      -0.38374353       0.25869934       0.00000000
Si       1.43858782      -1.60823025       1.11943056       0.00000000
Si      -3.05263753       1.34995623       1.64135267       0.00000000
Si      -2.64703282      -2.18209437       1.70333416       0.00000000
Si      -1.08887803      -1.55553210      -3.35894775       0.00000000
Si       0.72394226      -1.93751631       3.38025280       0.00000000
Si      -0.75871231       3.90757094       0.18784362       0.00000000
Si       0.41955709       2.12702995       3.34365092       0.00000000
