10
Lattice="16.290000149 0.0 0.0 0.0 16.290000149 0.0 0.0 0.0 29.1751946751" Properties=species:S:1:pos:R:3:initial_magmoms:R:1 pbc="T T T"
Si      -0.43370496       0.25438464      -2.28391797       0.00000000
Si       0.81052525       1.86013883       1.17925641       0.00000000
Si      -1.87540256      -0.80044174       1.19657189       0.00000000
Si       1.63455490      -1.73472212       0.08469063       0.00000000
Si       2.18606915       0.59421034       2.59536201       0.00000000
Si      -0.67517164      -2.19875906       2.63751141       0.00000000
Si      -2.14604462       1.89280028      -2.18171726       0.00000000
Si      -0.47754135      -2.03830256      -2.95348869       0.00000000
Si       1.72434539      -2.42458733      -2.14478147       0.00000000
Si       0.64386226      -3.51967608       1.23874755       0.00000000
