10
Lattice="16.290000149 0.0 0.0 0.0 16.290000149 0.0 0.0 0.0 29.1751946751" Properties=species:S:1:pos:R:3:initial_magmoms:R:1 pbc="T T T"
Si       1.34379469       1.35434735      -1.36738302       0.00000000
Si      -1.35695701      -1.36295499      -1.34970286       0.00000000
Si       1.38937411      -1.34822883       1.33374402       0.00000000
Si      -1.38383551       1.35480347       1.33496938       0.00000000
Si       0.02601513      -2.69824630       2.68353441       0.00000000
Si      -0.02836089       2.72308204       2.67238948       0.00000000
Si      -2.70348842      -0.00225779      -2.70506570       0.00000000
Si       2.70068654      -0.00303809      -2.71025888       0.00000000
Si       2.71684622       2.70182359      -0.02334016       0.00000000
Si       2.70930395      -2.71699609      -0.04945196       0.00000000
