10
Lattice="16.290000149 0.0 0.0 0.0 16.290000149 0.0 0.0 0.0 29.1751946751" Properties=species:S:1:pos:R:3:initial_magmoms:R:1 pbc="T T T"
Si       1.56494773       0.78306031       1.58074122       0.00000000
Si       1.15152382       0.12986388      -2.05743473       0.00000000
Si      -0.91124632      -1.83472643       1.17532272       0.00000000
Si      -1.92774233       1.49511250      -0.31538385       0.00000000
Si      -1.93727198      -0.34844310       2.65030386       0.00000000
H       -2.81419527       0.50849235       1.76121898       0.00000000
H        1.85662019      -2.84253987      -0.13843630       0.00000000
Si      -0.03416013       0.94962556       3.27794982       0.00000000
Si       2.36758862       2.71788878       0.54038296       0.00000000
Si       2.67379175       1.97796440      -1.64562686       0.00000000
