10
Lattice="16.290000149 0.0 0.0 0.0 16.290000149 0.0 0.0 0.0 29.1751946751" Properties=species:S:1:pos:R:3:initial_magmoms:R:1 pbc="T T T"
Si      -1.37953007       1.45232682      -1.15589204       0.00000000
Si       1.52785540      -1.26351757      -1.21357140       0.00000000
Si       0.85125025       1.66202962       1.39118998       0.00000000
Si      -0.92084113      -1.73091026       1.27953651       0.00000000
H        0.23824125       2.96780997       0.94933166       0.00000000
Si       2.56031561      -2.08907849       0.74005799       0.00000000
Si       0.11494224      -2.65737143      -2.51250942       0.00000000
Si      -2.61153993       0.09151282      -2.60029758       0.00000000
Si       0.10101429       1.06912411       3.54399842       0.00000000
Si       0.73135585      -3.38344932       1.37680661       0.00000000
