10
Lattice="16.290000149 0.0 0.0 0.0 16.290000149 0.0 0.0 0.0 29.1751946751" Properties=species:S:1:pos:R:3:initial_magmoms:R:1 pbc="T T T"
Si       1.30868974       1.36145305       1.34723172       0.00000000
Si      -1.37554390       1.26592849      -1.41610560       0.00000000
Si       1.29024946      -1.44868600      -1.32749178       0.00000000
Si      -1.43011540      -1.38831526       1.28205433       0.00000000
Si      -2.18606915      -0.59421034      -2.59536201       0.00000000
Si      -0.55151425      -2.32893245      -2.51067138       0.00000000
Si       2.61648353       2.65158848      -0.12335272       0.00000000
Si       2.62655075      -0.02940345       2.68864882       0.00000000
Si      -0.10901268       2.69376329       2.64952488       0.00000000
Si       2.54184275      -2.82040176       0.08348774       0.00000000
