10
Lattice="16.290000149 0.0 0.0 0.0 16.290000149 0.0 0.0 0.0 29.1751946751" Properties=species:S:1:pos:R:3:initial_magmoms:R:1 pbc="T T T"
Si      -1.33869592       1.15782805       1.55405175       0.00000000
Si      -1.30922731      -1.44378271      -1.37290005       0.00000000
Si       1.42702030      -1.36778986       1.33383155       0.00000000
Si       0.84217672       1.99666532      -1.09142740       0.00000000
H        1.91313020       0.28437453      -1.89043883       0.00000000
Si      -0.90228682       3.54165780      -0.64574625       0.00000000
Si      -2.73926127       2.52486857       0.29653960       0.00000000
Si      -2.70404228      -0.01462842      -2.59717875       0.00000000
Si       0.08252514       2.61516404       2.78278550       0.00000000
Si      -2.63658539      -2.82496296       0.00263452       0.00000000
