10
Lattice="16.290000149 0.0 0.0 0.0 16.290000149 0.0 0.0 0.0 29.1751946751" Properties=species:S:1:pos:R:3:initial_magmoms:R:1 pbc="T T T"
Si      -1.33265233       1.36574710      -1.37205106       0.00000000
Si       1.37084912       1.37226798       1.32974702       0.00000000
Si       1.36965181      -1.33991767      -1.38013258       0.00000000
Si      -1.37898109      -1.32685309       1.38911854       0.00000000
Si      -2.63705780      -2.69500133      -0.06619852       0.00000000
Si       0.06028002      -2.67595832       2.67580298       0.00000000
Si      -0.02497257       2.70949943       2.67848710       0.00000000
Si      -2.70311375       2.70585047      -0.00641854       0.00000000
Si      -2.66501144       0.01083285      -2.75501363       0.00000000
Si       2.77713552       0.03448593       2.66264497       0.00000000
