10
Lattice="16.290000149 0.0 0.0 0.0 16.290000149 0.0 0.0 0.0 29.1751946751" Properties=species:S:1:pos:R:3:initial_magmoms:R:1 pbc="T T T"
Si       1.34861653      -1.33519357       1.37549373       0.00000000
Si      -1.27138825       1.36181143       1.42255332       0.00000000
Si       1.34201908       1.36831114      -1.36309427       0.00000000
Si      -1.37938834      -1.36223497      -1.33327722       0.00000000
Si       2.66224214       0.13256802       2.65441756       0.00000000
Si       0.01643335      -2.69946642      -2.68201730       0.00000000
Si      -2.66336615       2.71702541       0.07235448       0.00000000
Si      -2.68420106       0.01741401      -2.70789569       0.00000000
Si      -0.06109890      -2.63069656       2.76257001       0.00000000
Si       2.71951778       0.02225214      -2.72084948       0.00000000
