10
Lattice="16.290000149 0.0 0.0 0.0 16.290000149 0.0 0.0 0.0 29.1751946751" Properties=species:S:1:pos:R:3:initial_magmoms:R:1 pbc="T T T"
H       -0.15845283       0.79364881       1.27551034       0.00000000
Si       1.07546581       1.17030619      -1.70645714       0.00000000
Si      -2.21183993       0.06939540      -0.80503115       0.00000000
Si       0.86066587      -2.07788726       0.79184396       0.00000000
H       -1.46965123      -1.89213239       1.71944010       0.00000000
H       -1.55797561       2.83169073       0.81007846       0.00000000
Si      -2.72280836      -1.90521326       0.86119340       0.00000000
Si       1.95079268      -0.61165693      -2.98920292       0.00000000
Si       0.71864965      -1.65710027       3.14987072       0.00000000
Si      -2.75773413       2.46286883      -0.07533035       0.00000000
