10
Lattice="16.290000149 0.0 0.0 0.0 16.290000149 0.0 0.0 0.0 29.1751946751" Properties=species:S:1:pos:R:3:initial_magmoms:R:1 pbc="T T T"
Si      -1.41213124      -1.28416026       1.38164969       0.00000000
Si       1.32240592      -1.39506258      -1.36510736       0.00000000
Si       1.39973455       1.37088496       1.31437170       0.00000000
Si      -1.34822557       1.33288039      -1.40726552       0.00000000
Si       0.00840564       2.72487719       2.62795566       0.00000000
Si      -2.64215657      -2.71735121      -0.04498815       0.00000000
Si       2.58414788      -2.78601357       0.06608182       0.00000000
Si       2.68962563      -0.03600090      -2.74133047       0.00000000
Si      -2.71751411       2.72070695      -0.09624897       0.00000000
Si       2.73999432       2.71922456      -0.05791276       0.00000000
