10
Lattice="16.290000149 0.0 0.0 0.0 16.290000149 0.0 0.0 0.0 29.1751946751" Properties=species:S:1:pos:R:3:initial_magmoms:R:1 pbc="T T T"
Si       1.37854126       1.31864293      -1.36361942       0.00000000
Si      -1.37285605      -1.32625036      -1.36478643       0.00000000
Si       1.35632170      -1.36994014       1.33899556       0.00000000
Si      -1.36894645       1.37973043       1.32221982       0.00000000
Si      -0.05602131       2.63865422      -2.64586923       0.00000000
Si       0.04484637      -2.65856060      -2.66707960       0.00000000
Si       2.72596863      -0.00889434       2.66810073       0.00000000
Si      -2.72925920       0.01764207       2.66635022       0.00000000
Si      -0.01537776       2.73282671       2.68423461       0.00000000
Si      -0.00003258      -2.72517041       2.69660489       0.00000000
