10
Lattice="16.290000149 0.0 0.0 0.0 16.290000149 0.0 0.0 0.0 29.1751946751" Properties=species:S:1:pos:R:3:initial_magmoms:R:1 pbc="T T T"
Si       1.41770242      -1.33231024      -1.30229316       0.00000000
Si       1.37285605       1.32625036       1.36478643       0.00000000
Si      -1.35153244      -1.37499004       1.34742719       0.00000000
Si      -1.35192340       1.31944114      -1.40723634       0.00000000
Si       0.10901268      -2.69376329      -2.64952488       0.00000000
Si       0.00390960       2.70598079       2.68700625       0.00000000
Si       2.75139732       2.64489329       0.00116701       0.00000000
Si      -2.72142371      -0.01128897       2.68376781       0.00000000
Si      -2.71479368       2.69335604      -0.05785441       0.00000000
Si      -2.69731451      -2.73282671      -0.01522945       0.00000000
