10
Lattice="16.290000149 0.0 0.0 0.0 16.290000149 0.0 0.0 0.0 29.1751946751" Properties=species:S:1:pos:R:3:initial_magmoms:R:1 pbc="T T T"
Si       1.74708623       0.32258924      -1.49204863       0.00000000
Si      -1.91783801       1.05939410      -0.77932780       0.00000000
Si       0.63768835       0.67872449       2.14609815       0.00000000
Si      -0.04386897      -2.14500369       0.98095757       0.00000000
Si       1.86316877      -1.98288561      -1.72644214       0.00000000
Si      -0.60450562      -1.10860130       2.98975725       0.00000000
H        1.32789565       2.98859438       0.00860668       0.00000000
Si      -0.75636100       2.50028533      -2.28170445       0.00000000
Si      -2.89005780       1.46372004       1.37272208       0.00000000
Si       2.15098049      -2.86738375       0.51505889       0.00000000
