10
Lattice="16.290000149 0.0 0.0 0.0 16.290000149 0.0 0.0 0.0 29.1751946751" Properties=species:S:1:pos:R:3:initial_magmoms:R:1 pbc="T T T"
Si      -1.46524805      -1.38124540       1.21596376       0.00000000
Si       1.33845157      -1.33118623      -1.40779067       0.00000000
Si      -1.34769452       1.35275419      -1.38544247       0.00000000
Si       1.41291316       1.39385386       1.29893802       0.00000000
Si      -0.11494224       2.65737143       2.51250942       0.00000000
Si      -0.04745277      -2.60380991       2.59326635       0.00000000
Si       2.75942829       2.68486895      -0.07124583       0.00000000
Si      -2.80639236      -0.07879473       2.63860461       0.00000000
Si      -0.01065366       2.70314633      -2.75507198       0.00000000
Si       2.75869524      -2.70278795      -0.15439513       0.00000000
