10
Lattice="16.290000149 0.0 0.0 0.0 16.290000149 0.0 0.0 0.0 29.1751946751" Properties=species:S:1:pos:R:3:initial_magmoms:R:1 pbc="T T T"
H       -0.59955346      -0.08941581      -1.40064275       0.00000000
Si      -1.71515783       0.44751888       1.52253671       0.00000000
Si       0.47719926      -2.03014127       1.05903039       0.00000000
H        1.51404148      -0.85027285      -1.70537765       0.00000000
Si       1.89565103       1.50030901       0.32057704       0.00000000
Si       0.79487056      -0.92955628      -3.03016489       0.00000000
Si      -2.56443698       2.29022741       0.39882491       0.00000000
Si      -0.34137324       1.47514096       3.15803977       0.00000000
Si       2.06925356      -1.21565755       2.62098279       0.00000000
Si       0.92444122       2.95658616       1.83091852       0.00000000
