10
Lattice="16.290000149 0.0 0.0 0.0 16.290000149 0.0 0.0 0.0 29.1751946751" Properties=species:S:1:pos:R:3:initial_magmoms:R:1 pbc="T T T"
Si       1.03470823      -1.11946673      -0.05012298       0.00000000
Si      -1.84272482       1.82965861      -0.71677618       0.00000000
Si      -0.30731085       2.55529666       0.88645912       0.00000000
Si      -0.22732695       1.09594071       2.82097875       0.00000000
Si      -1.79825312      -0.59693891       2.37844940       0.00000000
H        1.24265008       2.17616320      -1.75237889       0.00000000
Si      -1.21927393       0.76048074      -2.76417464       0.00000000
Si       2.91068908      -0.29038717       1.10763627       0.00000000
Si      -3.06056523       0.51468093       0.78522119       0.00000000
Si       1.34091136      -1.85939112      -2.23613280       0.00000000
