10
Lattice="16.290000149 0.0 0.0 0.0 16.290000149 0.0 0.0 0.0 29.1751946751" Properties=species:S:1:pos:R:3:initial_magmoms:R:1 pbc="T T T"
Si      -1.43244813       1.21279051      -1.38325433       0.00000000
Si       1.14272722      -1.42824205      -1.46342776       0.00000000
Si      -1.47847716      -1.20234862       1.38663865       0.00000000
Si       1.50348556       1.34125345       1.30200141       0.00000000
H        0.03715749      -2.67602348       0.74994838       0.00000000
H       -2.61708301      -0.23644935       1.67521050       0.00000000
H        2.05112279      -2.32764554      -0.65757971       0.00000000
Si      -0.18409329      -1.06054417       3.41513159       0.00000000
Si      -0.06496452       2.64038096      -2.68300925       0.00000000
Si      -2.86778937       2.45773748      -0.01452925       0.00000000
