10
Lattice="16.290000149 0.0 0.0 0.0 16.290000149 0.0 0.0 0.0 29.1751946751" Properties=species:S:1:pos:R:3:initial_magmoms:R:1 pbc="T T T"
Si      -1.35576784       1.35718507      -1.30340182       0.00000000
Si       1.38704464       1.35195598       1.29362813       0.00000000
Si       1.36023130      -1.34874685      -1.33324805       0.00000000
Si      -1.34614045      -1.30870603       1.39142338       0.00000000
H       -0.43774488      -2.20810952       2.19727144       0.00000000
Si       2.61052139      -0.18099819       2.53523689       0.00000000
Si      -2.66636351      -0.07296291      -2.62608845       0.00000000
Si      -2.55383219       2.75991699       0.17184190       0.00000000
Si       2.60211575      -2.73758340       0.03889053       0.00000000
Si       0.01642032       2.61034220      -2.73537873       0.00000000
