10
Lattice="16.290000149 0.0 0.0 0.0 16.290000149 0.0 0.0 0.0 29.1751946751" Properties=species:S:1:pos:R:3:initial_magmoms:R:1 pbc="T T T"
Si       1.34638480      -1.35008263      -1.36499066       0.00000000
Si      -1.35386191      -1.37461537       1.34243823       0.00000000
Si      -1.35687556       1.32877531      -1.38771813       0.00000000
Si       1.36559071       1.34025976       1.37170095       0.00000000
Si      -2.72666910      -0.01493793       2.66311177       0.00000000
Si      -0.01760949       2.68436396       2.70742889       0.00000000
Si       2.68410332      -2.72416043      -0.01283709       0.00000000
Si      -0.01229895      -2.71353935      -2.69832623       0.00000000
Si      -2.73531909       2.67682169      -0.06695707       0.00000000
Si       2.70982523       2.71169858       0.00866503       0.00000000
