10
Lattice="16.290000149 0.0 0.0 0.0 16.290000149 0.0 0.0 0.0 29.1751946751" Properties=species:S:1:pos:R:3:initial_magmoms:R:1 pbc="T T T"
Si      -1.37005417       1.34656399       1.33887886       0.00000000
Si      -1.38429163      -1.35006634      -1.32680033       0.00000000
Si       1.36215352      -1.36459702       1.33753680       0.00000000
Si       1.37103157       1.35752716      -1.33832453       0.00000000
Si       0.00829161       2.68177385       2.68394286       0.00000000
Si      -0.05172075      -2.76855557      -2.61263868       0.00000000
Si      -0.00307881      -2.71273789       2.68589760       0.00000000
Si       2.69980688      -0.00013032      -2.70515323       0.00000000
Si      -2.72031599      -0.01835883       2.69491273       0.00000000
Si      -2.71606430       2.70570386      -0.03002128       0.00000000
