10
Lattice="16.290000149 0.0 0.0 0.0 16.290000149 0.0 0.0 0.0 29.1751946751" Properties=species:S:1:pos:R:3:initial_magmoms:R:1 pbc="T T T"
Si      -0.34547832       0.88309720       2.13509910       0.00000000
Si      -1.85490974      -0.93126673      -1.10734451       0.00000000
Si       1.05565717       1.76244770      -1.18159538       0.00000000
Si       1.60195861      -1.77639194      -0.08907187       0.00000000
Si       2.13773672       0.34182936      -2.67971246       0.00000000
Si      -0.67191364      -2.38330847      -2.51886961       0.00000000
Si       1.27601200       2.57031767       2.20564472       0.00000000
Si       2.23050827      -2.17847801       2.05918524       0.00000000
Si       3.43337817      -0.95164552      -1.25339554       0.00000000
Si      -3.15670881      -2.16759629       0.39284400       0.00000000
