10
Lattice="16.290000149 0.0 0.0 0.0 16.290000149 0.0 0.0 0.0 29.1751946751" Properties=species:S:1:pos:R:3:initial_magmoms:R:1 pbc="T T T"
Si      -1.42024366       1.37160172      -1.25339554       0.00000000
Si      -1.30179907      -1.23632956       1.50018851       0.00000000
Si       1.18299610      -1.45204174      -1.41152509       0.00000000
Si       1.85490974       0.93126673       1.10734451       0.00000000
Si       3.45686835      -0.84512521       1.01827264       0.00000000
Si      -0.04411332       2.69216687      -2.61637311       0.00000000
Si       2.57873960      -2.73422765      -0.05152339       0.00000000
Si       2.56652210      -0.11634318      -2.75200859       0.00000000
Si       0.14599098      -2.58740588       2.78363450       0.00000000
Si      -2.77677714      -0.01029528      -2.60379860       0.00000000
