10
Lattice="16.290000149 0.0 0.0 0.0 16.290000149 0.0 0.0 0.0 29.1751946751" Properties=species:S:1:pos:R:3:initial_magmoms:R:1 pbc="T T T"
Si      -1.35602848       1.41165883      -1.31139583       0.00000000
Si       1.17530722       1.46398231       1.45141050       0.00000000
Si      -1.48644622      -1.19617471       1.44135673       0.00000000
Si       1.01693584      -1.23276205      -1.84337633       0.00000000
Si      -1.03775446      -2.22425291      -2.57716165       0.00000000
Si      -2.46465096      -0.28854477      -2.56499559       0.00000000
Si       2.40507191       0.50292117      -2.75971084       0.00000000
Si       2.54720216       0.11018556       2.81226995       0.00000000
Si      -0.13054806      -2.54254322       2.81858638       0.00000000
Si       2.46847259       2.95437072       0.17706017       0.00000000
