10
Lattice="16.290000149 0.0 0.0 0.0 16.290000149 0.0 0.0 0.0 29.1751946751" Properties=species:S:1:pos:R:3:initial_magmoms:R:1 pbc="T T T"
Si       1.36103929      -1.25524225       1.45477703       0.00000000
Si      -1.16399903       1.56550127       1.32822991       0.00000000
Si       1.35501199       1.42161515      -1.32977620       0.00000000
Si      -1.44595580      -1.38935782      -1.35617975       0.00000000
H       -1.49039492       1.64114258      -1.06241471       0.00000000
Si      -0.53432667       2.52426584      -2.27595694       0.00000000
Si      -1.43450393       3.36807156      -0.27048323       0.00000000
Si       2.81428649      -2.44649738       0.10281339       0.00000000
Si       0.02224725      -2.60809418      -2.68750223       0.00000000
Si      -2.62988043       0.24488757       2.68158842       0.00000000
