10
Lattice="16.290000149 0.0 0.0 0.0 16.290000149 0.0 0.0 0.0 29.1751946751" Properties=species:S:1:pos:R:3:initial_magmoms:R:1 pbc="T T T"
Si       1.18589572      -0.51222276       0.79867095       0.00000000
H       -0.80661565       0.74570734      -1.65522549       0.00000000
H        0.63086284       1.65685592      -1.10457287       0.00000000
H       -0.57057355       0.12116502       2.33209001       0.00000000
Si      -1.88325434       0.58046158       1.72687977       0.00000000
Si      -1.65188747      -0.18928980      -2.46329086       0.00000000
Si       2.51774984      -1.58309479      -0.82344069       0.00000000
Si      -1.61440417       2.61029333       0.52985071       0.00000000
Si       0.49445037      -2.37400688       2.21816088       0.00000000
Si      -2.85475737      -1.41612229       0.84928992       0.00000000
