10
Lattice="16.290000149 0.0 0.0 0.0 16.290000149 0.0 0.0 0.0 29.1751946751" Properties=species:S:1:pos:R:3:initial_magmoms:R:1 pbc="T T T"
Si       0.59955346       0.08941581       1.40064275       0.00000000
H        2.11359494      -0.76085704      -0.30473491       0.00000000
Si       1.39442401      -0.84014047      -1.62952215       0.00000000
Si      -0.47842101      -2.30244491      -1.78858531       0.00000000
Si      -1.11560437       0.53693469       2.92317946       0.00000000
H       -3.11186244      -0.64106038       0.72795028       0.00000000
Si       1.07675272      -1.94072546       2.45967314       0.00000000
Si       1.05151951       1.11063592      -3.00008527       0.00000000
H       -1.71233966      -2.67910229       1.19338216       0.00000000
Si       2.49520448       1.58972482       1.72121979       0.00000000
