10
Lattice="16.290000149 0.0 0.0 0.0 16.290000149 0.0 0.0 0.0 29.1751946751" Properties=species:S:1:pos:R:3:initial_magmoms:R:1 pbc="T T T"
Si      -1.34651512      -1.29101509       1.37018384       0.00000000
Si       1.25621965       1.31832528       1.46955456       0.00000000
Si       1.36440154      -1.37033110      -1.34340101       0.00000000
Si      -1.42610806       1.36478599      -1.29561205       0.00000000
Si       2.41769666       2.75921652      -0.03282209       0.00000000
Si       2.70788672       0.00829161      -2.65654735       0.00000000
Si      -0.04484637      -2.69549003      -2.69952241       0.00000000
Si      -0.11797218       2.71168229      -2.71825289       0.00000000
Si      -2.75942829      -2.68486895       0.07124583       0.00000000
Si      -2.77008195       0.01827738      -2.68382616       0.00000000
