10
Lattice="16.290000149 0.0 0.0 0.0 16.290000149 0.0 0.0 0.0 29.1751946751" Properties=species:S:1:pos:R:3:initial_magmoms:R:1 pbc="T T T"
Si      -1.36006840      -1.36383139       1.34167968       0.00000000
Si      -1.36102951       1.35266948      -1.35212440       0.00000000
Si       1.33235911       1.35491425       1.38296258       0.00000000
Si       1.35102745      -1.36093177      -1.35968077       0.00000000
Si       2.68421735       2.70599708       0.00965699       0.00000000
Si      -2.71265969       0.02212182       2.67816617       0.00000000
Si       0.02795364      -2.70583418       2.68881512       0.00000000
Si      -2.70894557      -0.03547962      -2.69012800       0.00000000
Si       2.66501144      -0.01083285       2.75501363       0.00000000
Si      -0.01133784       2.74074366      -2.68738553       0.00000000
