10
Lattice="16.290000149 0.0 0.0 0.0 16.290000149 0.0 0.0 0.0 29.1751946751" Properties=species:S:1:pos:R:3:initial_magmoms:R:1 pbc="T T T"
Si       2.23143680      -0.50463162       0.32860022       0.00000000
Si      -1.04459626       0.67037423       2.07254748       0.00000000
Si      -0.05411538       2.06768972      -1.28843495       0.00000000
Si      -0.65217016      -1.77153752      -1.58622616       0.00000000
Si      -2.36123552       1.97957059      -0.93509416       0.00000000
H       -0.65752957      -2.90936145       1.53598647       0.00000000
Si       2.79207345      -1.54103401      -1.68019946       0.00000000
Si      -3.11147148       1.38666509       1.21771428       0.00000000
Si       3.47363076       1.28269416      -0.51505889       0.00000000
Si       1.17058312      -3.22825449      -1.75074508       0.00000000
