10
Lattice="16.290000149 0.0 0.0 0.0 16.290000149 0.0 0.0 0.0 29.1751946751" Properties=species:S:1:pos:R:3:initial_magmoms:R:1 pbc="T T T"
Si       1.83697445       1.01678923      -0.94228585       0.00000000
Si       1.40056534      -1.36704052       1.25751216       0.00000000
Si      -1.32206383       1.48613003       1.20999452       0.00000000
Si      -1.30688155      -1.18361512      -1.55109922       0.00000000
Si       1.01478556       2.26585431      -2.65853710       0.00000000
Si      -2.67656105       0.09249462       2.51784264       0.00000000
Si      -2.63179613      -2.58455513      -0.20889731       0.00000000
Si       0.04393413      -2.70707222       2.57202098       0.00000000
Si       2.73926127      -2.52486857      -0.29653960       0.00000000
Si       2.82178641       0.09029547       2.48624590       0.00000000
