10
Lattice="16.290000149 0.0 0.0 0.0 16.290000149 0.0 0.0 0.0 29.1751946751" Properties=species:S:1:pos:R:3:initial_magmoms:R:1 pbc="T T T"
Si       0.17643699      -1.38926334      -0.60812776       0.00000000
Si      -0.71198704       1.82045639       1.92649645       0.00000000
Si      -0.52900146       1.28277235      -2.38723113       0.00000000
Si      -2.55375074       0.94020994       0.74331686       0.00000000
Si      -2.46396026       0.25034472      -1.48615524       0.00000000
Si       1.19495296       2.61228071       0.80285176       0.00000000
Si       2.04188636      -0.78572046       2.05826039       0.00000000
Si       0.99862588      -2.63832842       1.10812349       0.00000000
Si       2.90186805       0.94490146       0.67271493       0.00000000
Si       2.06883002      -1.37419835      -1.94747342       0.00000000
