10
Lattice="16.290000149 0.0 0.0 0.0 16.290000149 0.0 0.0 0.0 29.1751946751" Properties=species:S:1:pos:R:3:initial_magmoms:R:1 pbc="T T T"
Si       1.34718301      -1.34433226       1.36525323       0.00000000
Si      -1.35356869       1.33130026       1.39889223       0.00000000
Si      -1.42122106      -1.45733599      -1.22873375       0.00000000
Si       1.46469907       1.43225477      -1.21429203       0.00000000
Si      -0.98481196       0.92649376      -3.42853175       0.00000000
Si       0.05844852       2.77910172      -2.47839486       0.00000000
Si      -2.82178641      -0.09029547      -2.48624590       0.00000000
Si       2.68929983      -2.65776239      -0.05070649       0.00000000
Si      -0.08252514      -2.61516404      -2.78278550       0.00000000
Si      -0.00871515      -2.71480997       2.70979208       0.00000000
