10
Lattice="16.290000149 0.0 0.0 0.0 16.290000149 0.0 0.0 0.0 29.1751946751" Properties=species:S:1:pos:R:3:initial_magmoms:R:1 pbc="T T T"
Si       1.41491683       1.32613633      -1.23901217       0.00000000
Si      -1.42612435      -1.38943927      -1.17964065       0.00000000
Si       1.29564145      -1.29347488       1.42631692       0.00000000
Si      -1.08207955       1.42061833       1.49811707       0.00000000
H        2.14091327      -0.35847774       2.23438228       0.00000000
Si      -0.53577810      -2.11822130       2.59064059       0.00000000
Si       1.04531302       2.39060639       2.17795746       0.00000000
Si      -2.13773672      -0.34182936       2.67971246       0.00000000
Si       2.64541457       2.46400913       0.38610453       0.00000000
Si       0.00729792      -2.71228502      -2.46165705       0.00000000
