10
Lattice="16.290000149 0.0 0.0 0.0 16.290000149 0.0 0.0 0.0 29.1751946751" Properties=species:S:1:pos:R:3:initial_magmoms:R:1 pbc="T T T"
Si      -1.37357281      -1.34315938       1.34214648       0.00000000
Si      -1.37064061       1.34734591      -1.34167968       0.00000000
Si       1.35492076      -1.35477415      -1.36394035       0.00000000
Si       1.35894439       1.36298431       1.35696748       0.00000000
Si       0.01006722       2.69133608      -2.67484020       0.00000000
Si      -0.01066995      -2.73683406       2.64677366       0.00000000
Si       2.71950149      -2.69374700      -0.00064185       0.00000000
Si      -2.72456769       0.02810025       2.69243284       0.00000000
Si       2.71081892       0.01570356      -2.70847920       0.00000000
Si      -2.72714151      -2.69625566      -0.01986831       0.00000000
