10
Lattice="16.290000149 0.0 0.0 0.0 16.290000149 0.0 0.0 0.0 29.1751946751" Properties=species:S:1:pos:R:3:initial_magmoms:R:1 pbc="T T T"
Si      -1.16638193       0.16035876      -2.01790234       0.00000000
Si       0.22266801       1.85253140       1.43959163       0.00000000
Si       2.31050683      -0.17881533      -0.59558242       0.00000000
Si      -1.16142977      -2.05379435       0.59482387       0.00000000
H       -2.72085519       0.59538322       0.01455842       0.00000000
H       -2.19931455      -0.94716577      -1.80299786       0.00000000
Si      -3.17071984      -0.68949055       0.67695204       0.00000000
Si       1.66084534       0.66575602       2.88519335       0.00000000
Si       1.88460478      -1.99228331      -2.08127086       0.00000000
Si       0.31952672      -0.91683379      -3.44459853       0.00000000
