10
Lattice="16.290000149 0.0 0.0 0.0 16.290000149 0.0 0.0 0.0 29.1751946751" Properties=species:S:1:pos:R:3:initial_magmoms:R:1 pbc="T T T"
H       -0.87692329       0.85693546      -0.88908488       0.00000000
Si       1.02602566      -1.48628332      -1.47498114       0.00000000
Si      -1.40006035      -1.23155659       1.42281589       0.00000000
Si       1.90311185       1.29806866       0.62764596       0.00000000
Si       1.93727198       0.34844310      -2.65030386       0.00000000
Si       0.00952965       1.84355561      -2.96568771       0.00000000
H       -2.78270670       0.42922521      -2.13200653       0.00000000
Si       2.14615865       0.77973715       2.92856724       0.00000000
Si      -0.00524538      -2.66071088       2.64709459       0.00000000
Si       2.53016282      -2.79684642      -0.18252002       0.00000000
