10
Lattice="16.290000149 0.0 0.0 0.0 16.290000149 0.0 0.0 0.0 29.1751946751" Properties=species:S:1:pos:R:3:initial_magmoms:R:1 pbc="T T T"
Si      -2.05742702       0.61052151      -0.89016436       0.00000000
Si       1.03017961      -1.62363898      -1.31600551       0.00000000
Si      -0.52375608      -1.25397000       1.93107696       0.00000000
Si       1.51759270       1.84875375       0.07279211       0.00000000
Si       2.32096664      -0.18532172      -2.59732171       0.00000000
Si      -3.29962098      -1.17680427      -0.04650526       0.00000000
Si       2.55551006      -2.61921863       0.18902609       0.00000000
Si       0.77893894       3.17361946      -1.71669763       0.00000000
Si      -2.12986865       0.27520978       3.01464369       0.00000000
Si       0.89414182       2.91793162       2.12019057       0.00000000
