10
Lattice="16.290000149 0.0 0.0 0.0 16.290000149 0.0 0.0 0.0 29.1751946751" Properties=species:S:1:pos:R:3:initial_magmoms:R:1 pbc="T T T"
Si      -1.56507805       1.07544952      -1.36332767       0.00000000
Si       1.38495952      -1.48025602      -1.21220016       0.00000000
Si      -0.84851353      -1.48858021       1.63063081       0.00000000
Si       0.42590205       1.81346798       1.48568844       0.00000000
H        0.35124498      -1.11975832       2.51603961       0.00000000
Si      -1.88460478       1.99228331       2.08127086       0.00000000
Si      -0.25212033       2.56347587      -2.63282792       0.00000000
Si      -3.05098671       2.15264207       0.06336852       0.00000000
Si       2.70001865      -0.12290805      -2.59685490       0.00000000
Si      -0.11852604      -2.82150948      -2.51420158       0.00000000
