10
Lattice="16.290000149 0.0 0.0 0.0 16.290000149 0.0 0.0 0.0 29.1751946751" Properties=species:S:1:pos:R:3:initial_magmoms:R:1 pbc="T T T"
Si       2.23783877      -0.54252217       0.29213122       0.00000000
Si      -1.57092616      -1.69287962      -0.44252935       0.00000000
Si      -0.73788814       0.62622019       2.17765900       0.00000000
Si      -0.07998390       1.45935595      -1.93451963       0.00000000
H        0.22732695      -1.09594071      -2.82097875       0.00000000
H        2.18194778      -2.26945114      -0.49980026       0.00000000
Si      -2.83323828      -0.58125979      -2.03575756       0.00000000
Si      -1.30997665       3.30928095      -1.26322758       0.00000000
Si       3.13801603      -1.38632788      -1.71334248       0.00000000
Si       1.26203518      -2.21540744      -2.87110173       0.00000000
