10
Lattice="16.290000149 0.0 0.0 0.0 16.290000149 0.0 0.0 0.0 29.1751946751" Properties=species:S:1:pos:R:3:initial_magmoms:R:1 pbc="T T T"
Si      -0.11608254       2.30547485       0.23439351       0.00000000
Si       1.60010155       0.07340274      -1.79185293       0.00000000
Si       0.28781172      -0.88449814       2.24150103       0.00000000
Si      -2.12739257      -0.96998806      -0.67984039       0.00000000
H        1.09560025      -2.74908414       0.05642483       0.00000000
H        2.53307873      -1.83793556       0.60707745       0.00000000
Si      -1.86316877       1.98288561       1.72644214       0.00000000
Si      -1.90703774      -0.16211808       2.70739972       0.00000000
Si       3.17936820      -1.01185336      -0.47004156       0.00000000
Si      -1.04531302      -2.39060639      -2.17795746       0.00000000
