10
Lattice="16.290000149 0.0 0.0 0.0 16.290000149 0.0 0.0 0.0 29.1751946751" Properties=species:S:1:pos:R:3:initial_magmoms:R:1 pbc="T T T"
Si      -0.27598518       0.81922411       2.15210824       0.00000000
Si       1.65219698      -1.65253907       0.09727010       0.00000000
Si      -1.77060899      -1.00525591      -1.15344132       0.00000000
Si       0.92084113       1.73091026      -1.27953651       0.00000000
Si      -0.42946468      -2.30770658      -2.57608216       0.00000000
Si      -2.54783747       1.31442382       2.02268707       0.00000000
Si       2.44869653       0.46739268      -2.49310791       0.00000000
Si       3.48115674      -0.35816823      -0.53947852       0.00000000
Si       1.02185542       2.80003437       2.26446191       0.00000000
Si       2.11900322      -2.07199028       2.30971264       0.00000000
