10
Lattice="16.290000149 0.0 0.0 0.0 16.290000149 0.0 0.0 0.0 29.1751946751" Properties=species:S:1:pos:R:3:initial_magmoms:R:1 pbc="T T T"
Si      -1.19975851      -0.36882189      -0.88540881       0.00000000
H        1.39952278      -2.03804192       0.46543188       0.00000000
Si      -0.35124498       1.11975832      -2.51603961       0.00000000
Si       0.07465707       2.93322630      -1.03035118       0.00000000
Si      -1.97426657      -2.47704113       0.29464029       0.00000000
Si      -1.44656830      -1.54917901       2.37777837       0.00000000
Si       1.99625807       1.17799507       2.19522917       0.00000000
Si       0.60812200      -0.55768816       3.11156369       0.00000000
H        3.11186244       0.64106038      -0.72795028       0.00000000
Si      -0.65386432      -2.76229533      -1.61510960       0.00000000
