10
Lattice="16.290000149 0.0 0.0 0.0 16.290000149 0.0 0.0 0.0 29.1751946751" Properties=species:S:1:pos:R:3:initial_magmoms:R:1 pbc="T T T"
H        1.22489398      -1.95771593       0.22278179       0.00000000
H       -1.98215093      -0.62203366      -1.08257477       0.00000000
Si       1.87672205       0.71032546       1.27367230       0.00000000
Si      -0.75890224      -1.87292648       1.28128702       0.00000000
Si       0.63069994      -0.33306534      -2.32963929       0.00000000
Si      -1.78028525       1.54675180       0.63243070       0.00000000
H       -2.63318078      -0.19943847      -1.12461623       0.00000000
H        2.32658669       1.99519922       0.61127868       0.00000000
H        2.84812734       0.45265023      -1.20627760       0.00000000
H       -0.43432398       2.16210656      -2.21571016       0.00000000
