10
Lattice="16.290000149 0.0 0.0 0.0 16.290000149 0.0 0.0 0.0 29.1751946751" Properties=species:S:1:pos:R:3:initial_magmoms:R:1 pbc="T T T"
H       -1.18589572       0.51222276      -0.79867095       0.00000000
Si       1.33185412      -1.07087203      -1.62211165       0.00000000
H       -1.75646927       0.63338779       1.53341906       0.00000000
Si       1.29730303       1.67381381       1.17546859       0.00000000
Si      -0.69144535      -1.86178412       1.41948992       0.00000000
H       -0.55503289       2.16907868      -1.90324382       0.00000000
H        1.52598205      -1.07606854       2.54285162       0.00000000
Si      -3.06915006       1.09268434       0.92820882       0.00000000
H       -1.99251137       1.25793010      -2.45389645       0.00000000
Si       2.55891467       0.03145599       2.32794713       0.00000000
