10
Lattice="16.290000149 0.0 0.0 0.0 16.290000149 0.0 0.0 0.0 29.1751946751" Properties=species:S:1:pos:R:3:initial_magmoms:R:1 pbc="T T T"
Si       1.47001735      -1.29251003       1.27078395       0.00000000
Si      -1.39988116      -1.41689607      -1.25815110       0.00000000
Si      -1.23088870       1.43077515       1.41665993       0.00000000
Si       1.38373777       1.33676556      -1.38065774       0.00000000
Si       0.15822477      -2.62874176       2.63688327       0.00000000
Si      -2.58429449       2.74000246      -0.00986122       0.00000000
Si      -2.66162312      -0.02594508      -2.68934027       0.00000000
Si       0.02972925      -2.69958697      -2.67002629       0.00000000
Si       2.70202721       0.06830397       2.71518949       0.00000000
Si       2.76312612       2.69900053      -0.04738052       0.00000000
