10
Lattice="16.290000149 0.0 0.0 0.0 16.290000149 0.0 0.0 0.0 29.1751946751" Properties=species:S:1:pos:R:3:initial_magmoms:R:1 pbc="T T T"
Si       1.46820305      -1.21873636      -1.33132248       0.00000000
Si      -1.14398155      -1.64753804       1.18556321       0.00000000
Si      -1.76699261       1.14971563      -1.03717817       0.00000000
Si       1.44595580       1.38935782       1.35617975       0.00000000
H       -0.04443912       3.03050040       0.29376504       0.00000000
H       -2.05210019      -0.91434142       2.16194028       0.00000000
Si      -3.36610047       1.31628088       0.66003043       0.00000000
Si       2.64914498       0.30822309      -2.64907850       0.00000000
Si       2.90638038      -2.40551174       0.11427924       0.00000000
Si      -0.96435172       3.08454411      -2.07753644       0.00000000
