10
Lattice="16.290000149 0.0 0.0 0.0 16.290000149 0.0 0.0 0.0 29.1751946751" Properties=species:S:1:pos:R:3:initial_magmoms:R:1 pbc="T T T"
Si      -1.37313298      -1.35606106       1.33505691       0.00000000
Si      -1.38175039       1.35789695      -1.32575002       0.00000000
Si       1.35164647       1.36837956       1.35215357       0.00000000
Si       1.35060391      -1.37860642      -1.34599761       0.00000000
Si      -0.00332316      -2.69785208       2.68811491       0.00000000
Si      -0.02956635       2.73105110      -2.66054435       0.00000000
Si      -2.73988029      -0.01210347      -2.66416208       0.00000000
Si       2.73131174      -0.03461625      -2.67915813       0.00000000
Si      -2.69306282       0.01270620       2.71825289       0.00000000
Si       2.72759762       0.02298519       2.68913604       0.00000000
