10
Lattice="16.290000149 0.0 0.0 0.0 16.290000149 0.0 0.0 0.0 29.1751946751" Properties=species:S:1:pos:R:3:initial_magmoms:R:1 pbc="T T T"
Si       1.32147739       1.34298622       1.33370610       0.00000000
Si      -1.40625055       1.34684695      -1.26410283       0.00000000
Si       1.23408154      -1.21445747      -1.58310441       0.00000000
Si      -1.46469907      -1.43225477       1.21429203       0.00000000
Si      -2.44951103      -0.50576101      -2.21423973       0.00000000
Si      -0.70504750      -2.05075349      -2.65992088       0.00000000
Si       2.64011609      -0.09155518       2.60860375       0.00000000
Si       2.61456561       2.63930045      -0.13860551       0.00000000
Si       2.53588061      -2.74109112      -0.26496037       0.00000000
Si      -0.12066003       2.67526877       2.61592673       0.00000000
