10
Lattice="16.290000149 0.0 0.0 0.0 16.290000149 0.0 0.0 0.0 29.1751946751" Properties=species:S:1:pos:R:3:initial_magmoms:R:1 pbc="T T T"
Si       1.29316537       1.49038840      -1.27435033       0.00000000
Si       1.37189494      -1.35379675       1.36085945       0.00000000
Si      -1.38468259       1.36852291       1.35262621       0.00000000
Si      -1.17530722      -1.46398231      -1.45141050       0.00000000
Si       2.60354927       0.06656094      -2.57561828       0.00000000
Si      -2.53133570      -0.05232348      -2.76280633       0.00000000
Si      -2.66175344      -2.66015702      -0.01005377       0.00000000
Si       0.01516599      -2.66652641       2.76134173       0.00000000
Si       2.71280630       0.01787013       2.72458099       0.00000000
Si      -0.02577078       2.74040157       2.71486565       0.00000000
