10
Lattice="16.290000149 0.0 0.0 0.0 16.290000149 0.0 0.0 0.0 29.1751946751" Properties=species:S:1:pos:R:3:initial_magmoms:R:1 pbc="T T T"
Si       1.29173185      -1.41408604       1.35795944       0.00000000
Si      -1.33185412       1.07087203       1.62211165       0.00000000
Si       1.31965291       1.32554989      -1.44163389       0.00000000
Si      -1.40861260      -1.36502056      -1.31819365       0.00000000
H       -2.51774984       1.58309479       0.82344069       0.00000000
Si       2.71296920       0.02513547       2.52336259       0.00000000
Si      -2.02329947      -0.79091209       3.04160157       0.00000000
Si      -0.34660233      -2.47098125       2.79019892       0.00000000
H       -1.88688701       3.23995071      -0.28113218       0.00000000
Si       2.60813165       2.73572634      -0.12344025       0.00000000
