10
Lattice="16.290000149 0.0 0.0 0.0 16.290000149 0.0 0.0 0.0 29.1751946751" Properties=species:S:1:pos:R:3:initial_magmoms:R:1 pbc="T T T"
Si       1.36875891      -1.35620767       1.34103782       0.00000000
Si       1.39841083       1.33485148      -1.33502773       0.00000000
Si      -1.35102745       1.36093177       1.35968077       0.00000000
Si      -1.35922132      -1.35018037      -1.36408623       0.00000000
Si       0.07977213       2.76939288      -2.60992539       0.00000000
Si       2.70019784      -2.70485678      -0.04965618       0.00000000
Si       0.02086749      -2.71054199       2.69791778       0.00000000
Si      -2.71109585      -0.00289962       2.70136045       0.00000000
Si       2.68363580       0.01018125       2.73456182       0.00000000
Si      -2.71205696       2.71360126       0.00755638       0.00000000
