10
Lattice="16.290000149 0.0 0.0 0.0 16.290000149 0.0 0.0 0.0 29.1751946751" Properties=species:S:1:pos:R:3:initial_magmoms:R:1 pbc="T T T"
Si      -1.46820305       1.21873636       1.33132248       0.00000000
Si       1.18094193       1.52695945      -1.31775602       0.00000000
Si      -0.22266801      -1.85253140      -1.43959163       0.00000000
Si       1.43817732      -1.18677538       1.44560172       0.00000000
H       -2.94352321      -1.25714818      -1.42503321       0.00000000
Si       2.08783882      -2.03134673      -2.03517406       0.00000000
Si      -2.61218460      -0.42880167       2.51688569       0.00000000
Si       2.54048905       0.17694198      -2.64519820       0.00000000
Si       3.16016066      -1.94386943       0.06669450       0.00000000
Si      -0.02224725       2.60809418       2.68750223       0.00000000
