10
Lattice="16.290000149 0.0 0.0 0.0 16.290000149 0.0 0.0 0.0 29.1751946751" Properties=species:S:1:pos:R:3:initial_magmoms:R:1 pbc="T T T"
Si       1.36335898       1.35001747      -1.34979038       0.00000000
Si       1.37406151      -1.35193969       1.34488895       0.00000000
Si      -1.35117406       1.36182772       1.36058520       0.00000000
Si      -1.36945144      -1.36172998      -1.35224110       0.00000000
Si      -0.00206883      -2.67250484       2.70786652       0.00000000
Si      -0.02601513       2.69824630      -2.68353441       0.00000000
Si       2.66439242      -2.72031599      -0.06698625       0.00000000
Si       2.68328882      -0.01874979      -2.73298636       0.00000000
Si       2.72547992       2.69247150       0.02768726       0.00000000
Si      -2.68821492       0.01143558       2.73021472       0.00000000
