10
Lattice="16.290000149 0.0 0.0 0.0 16.290000149 0.0 0.0 0.0 29.1751946751" Properties=species:S:1:pos:R:3:initial_magmoms:R:1 pbc="T T T"
Si      -1.54025209      -1.31295772      -1.19361556       0.00000000
Si      -1.38842929       1.18979215       1.48186649       0.00000000
Si       1.38810349      -1.31514058       1.42932196       0.00000000
Si       0.78902245       1.49275860      -1.71147527       0.00000000
H        1.17608914      -2.08697708      -2.24803628       0.00000000
Si      -1.27785277       2.20904945      -2.56630847       0.00000000
Si      -0.18070497      -2.66297519      -2.52105775       0.00000000
Si      -2.57569337       0.22823919      -2.67866215       0.00000000
Si       0.04960305       2.63289734       2.74912024       0.00000000
H       -0.61968790       3.76168683       0.02867922       0.00000000
