10
Lattice="16.290000149 0.0 0.0 0.0 16.290000149 0.0 0.0 0.0 29.1751946751" Properties=species:S:1:pos:R:3:initial_magmoms:R:1 pbc="T T T"
Si      -1.39468465      -1.34219827      -1.32933857       0.00000000
Si      -1.35803215       1.35549091       1.35550872       0.00000000
Si       1.33043689      -1.36901161       1.37283879       0.00000000
Si       1.36195804       1.34469064      -1.37070900       0.00000000
Si      -0.04507443      -2.73963756      -2.62258742       0.00000000
Si       2.70774011       2.70252731      -0.00805235       0.00000000
Si       2.68732874      -2.72639705       0.02996292       0.00000000
Si      -2.70164440       2.71383257      -0.00673947       0.00000000
Si       2.70348842      -0.02153538       2.71688165       0.00000000
Si      -0.01052334       2.71818200       2.70620353       0.00000000
