10
Lattice="16.290000149 0.0 0.0 0.0 16.290000149 0.0 0.0 0.0 29.1751946751" Properties=species:S:1:pos:R:3:initial_magmoms:R:1 pbc="T T T"
Si      -1.33880995      -1.28827837      -1.43078072       0.00000000
Si       1.35132067       1.38434050      -1.35472099       0.00000000
Si      -1.12544353       1.11637000       1.75278735       0.00000000
Si       1.34275213      -1.41423265       1.37100075       0.00000000
Si       0.73663381       1.95844898       3.00507423       0.00000000
Si       2.41333094       0.27837981       2.75367157       0.00000000
Si      -2.78480811      -0.40860207       2.48595999       0.00000000
Si       0.05251896      -2.64227060      -2.74436469       0.00000000
Si       2.73657342       0.03375288      -2.70952950       0.00000000
Si      -0.04914693      -3.23804478       2.12127005       0.00000000
