10
Lattice="16.290000149 0.0 0.0 0.0 16.290000149 0.0 0.0 0.0 29.1751946751" Properties=species:S:1:pos:R:3:initial_magmoms:R:1 pbc="T T T"
Si       0.90811864      -0.73319662      -0.97637707       0.00000000
Si      -1.07095348       1.71229079       0.79901143       0.00000000
Si      -1.91313020      -0.28437453       1.89043883       0.00000000
Si      -1.31400028       2.23062230      -1.50190985       0.00000000
Si       2.30518407      -1.90571825       0.48970564       0.00000000
Si      -0.68694931      -1.86429278      -2.31207583       0.00000000
Si       2.05210019       0.91434142      -2.16194028       0.00000000
Si       0.86817556       2.54858681       1.87582789       0.00000000
Si      -0.48610989      -1.65216440       3.22427038       0.00000000
Si      -3.22235751      -1.72815725       0.51753878       0.00000000
