10
Lattice="16.290000149 0.0 0.0 0.0 16.290000149 0.0 0.0 0.0 29.1751946751" Properties=species:S:1:pos:R:3:initial_magmoms:R:1 pbc="T T T"
Si       0.61300900      -1.30578035       0.44185832       0.00000000
Si      -1.51563465       1.47367486       0.63669027       0.00000000
H        2.01396530       0.34837794      -1.40752809       0.00000000
Si       1.10556973       1.24778143      -2.21337614       0.00000000
Si      -0.03715749       2.67602348      -0.74994838       0.00000000
Si      -2.83295564      -0.22683825      -0.50061717       0.00000000
Si      -1.61777132      -1.51548315      -2.10522370       0.00000000
Si      -0.22125078       1.61547931       2.66518321       0.00000000
Si      -0.23824125      -2.96780997      -0.94933166       0.00000000
Si       2.92012914      -1.21766122       0.08851754       0.00000000
