10
Lattice="16.290000149 0.0 0.0 0.0 16.290000149 0.0 0.0 0.0 29.1751946751" Properties=species:S:1:pos:R:3:initial_magmoms:R:1 pbc="T T T"
Si      -1.25315713      -0.01308087      -0.85824670       0.00000000
Si       2.33031710      -0.18575487      -0.92759614       0.00000000
Si       2.18830088       0.23503212       1.43043062       0.00000000
Si       1.46965123       1.89213239      -1.71944010       0.00000000
Si       0.66929095      -1.12878950       2.72044103       0.00000000
H        1.31119840       2.68578119      -0.44392976       0.00000000
Si      -0.76874140      -2.57189468       1.45318727       0.00000000
Si      -2.65808005      -1.46924398       0.50700653       0.00000000
Si      -0.65816488      -1.55263738      -2.59498769       0.00000000
Si      -2.06259095       2.24678198      -0.61472135       0.00000000
