10
Lattice="10.86 0.0 0.0 0.0 10.86 0.0 0.0 0.0 10.86" Properties=species:S:1:pos:R:3:initial_magmoms:R:1 pbc="T T T"
Si      -1.33543248      -1.23184980       1.15160526       0.00000000
Si       1.37956752       1.48315020       1.15160526       0.00000000
Si       1.37956752      -1.23184980      -1.56339474       0.00000000
Si      -1.22448672       1.38558396      -1.73440716       0.00000000
Si       0.02206752      -2.58934980       2.50910526       0.00000000
Si      -2.69293248       0.12565020       2.50910526       0.00000000
Si       2.73706752       0.12565020       2.50910526       0.00000000
Si      -2.69293248      -2.58934980      -0.20589474       0.00000000
Si       2.73706752      -2.58934980      -0.20589474       0.00000000
Si       0.02206752       2.84065020       2.50910526       0.00000000
