10
Lattice="10.86 0.0 0.0 0.0 10.86 0.0 0.0 0.0 10.86" Properties=species:S:1:pos:R:3:initial_magmoms:R:1 pbc="T T T"
Si      -1.23938664      -1.38659394       1.15891404       0.00000000
Si       1.48770054       0.49668210       1.55628144       0.00000000
Si      -1.23938664       1.32840606      -1.55608596       0.00000000
Si       1.47561336      -1.38659394      -1.55608596       0.00000000
Si       2.42694936       2.41340694       0.02370738       0.00000000
Si       0.08105904       2.49991770       2.36361384       0.00000000
Si      -2.59688664      -0.02909394       2.51641404       0.00000000
Si      -2.59688664       2.68590606      -0.19858596       0.00000000
Si      -2.59688664      -2.74409394      -0.19858596       0.00000000
Si       0.22217388      -2.94589446       2.38713660       0.00000000
