10
Lattice="10.86 0.0 0.0 0.0 10.86 0.0 0.0 0.0 10.86" Properties=species:S:1:pos:R:3:initial_magmoms:R:1 pbc="T T T"
Si      -1.36438524      -1.46173428      -1.31576502       0.00000000
Si      -1.30278732       1.46006184       1.55042790       0.00000000
Si       1.22448672      -1.38558396       1.73440716       0.00000000
Si      -0.09885858       1.98084228      -2.14662018       0.00000000
Si      -0.11094576      -2.61743376      -2.54398758       0.00000000
Si       2.60405424      -2.61743376       0.17101242       0.00000000
Si      -2.82594576       0.09756624      -2.54398758       0.00000000
Si      -2.82594576      -2.61743376       0.17101242       0.00000000
Si       2.60405424       0.09756624       2.88601242       0.00000000
Si      -0.11094576      -2.61743376       2.88601242       0.00000000
