10
Lattice="16.28999089631971 0.0 0.0 0.0 16.28999089631971 0.0 0.0 0.0 34.48637585096406" Properties=species:S:1:pos:R:3:initial_magmoms:R:1 pbc="T T T"
Si       1.35808101       1.35444834      -1.39390560       0.00000000
Si      -1.35822762      -1.36457297      -1.39394009       0.00000000
Si       1.45964916      -1.26757605       1.50181353       0.00000000
Si      -1.41841917       1.37624436       1.55143946       0.00000000
Si       2.69780319       2.71134018      -0.02220924       0.00000000
Si       2.70503595      -2.70592280      -0.02693387       0.00000000
Si      -2.72632698      -2.69043101      -0.02996868       0.00000000
Si      -2.71275741       2.71083519      -0.00665587       0.00000000
Si       0.00131949       2.70866862      -2.75366968       0.00000000
Si      -2.71241532      -0.00550928      -2.75194536       0.00000000
