10
Lattice="16.28999089631971 0.0 0.0 0.0 16.28999089631971 0.0 0.0 0.0 34.48637585096406" Properties=species:S:1:pos:R:3:initial_magmoms:R:1 pbc="T T T"
Si      -0.08109162      -0.68688414       2.25541024       0.00000000
Si       1.37060802      -1.29350745      -1.42746087       0.00000000
Si       1.01595843       2.13063426       0.25323360       0.00000000
Si      -2.28377655       0.11756493      -0.74742364       0.00000000
Si       2.00538045      -1.72624804       2.25899683       0.00000000
Si      -1.88809245      -1.28580228      -2.69255979       0.00000000
Si      -0.78951114       3.23235954       1.18326270       0.00000000
Si      -2.77876449       2.23648668       0.34441563       0.00000000
Si       0.40702194      -0.92349639      -3.49257518       0.00000000
Si       3.51460008      -0.20567754       1.18409038       0.00000000
