10
Lattice="16.28999089631971 0.0 0.0 0.0 16.28999089631971 0.0 0.0 0.0 34.48637585096406" Properties=species:S:1:pos:R:3:initial_magmoms:R:1 pbc="T T T"
Si       2.02209399       1.19932844      -0.44515039       0.00000000
Si      -0.77408451       1.01398082       2.02514458       0.00000000
Si       0.25130583      -2.09384885       1.15608742       0.00000000
Si      -1.49170788       0.90443057      -1.73532092       0.00000000
Si      -2.60139897      -0.52776342       2.28775848       0.00000000
Si      -1.95502806       3.00688313      -0.70590202       0.00000000
Si      -0.94152942       3.26299451       1.39611273       0.00000000
Si      -2.91185379      -2.23835744       0.51819257       0.00000000
Si       2.55407652      -2.39536046       1.52116040       0.00000000
Si       2.10318561       1.88621258      -2.70056063       0.00000000
