10
Lattice="16.28999089631971 0.0 0.0 0.0 16.28999089631971 0.0 0.0 0.0 34.48637585096406" Properties=species:S:1:pos:R:3:initial_magmoms:R:1 pbc="T T T"
Si       1.35786924       1.35653346      -1.35752246       0.00000000
Si      -1.35684297      -1.35879777      -1.35755694       0.00000000
Si      -1.35866745       1.35900954       1.35559122       0.00000000
Si       1.35791811      -1.35954711       1.36024688       0.00000000
Si      -2.70158247      -0.00522909       2.71990750       0.00000000
Si      -0.02300148       2.71733490       2.70832007       0.00000000
Si      -2.71453465       2.71158453      -0.00106908       0.00000000
Si       0.00029322       2.71423980      -2.71504492       0.00000000
Si       2.71573848       2.71391400       0.00024140       0.00000000
Si      -2.71466823      -0.00110772      -2.71518286       0.00000000
