10
Lattice="16.28999089631971 0.0 0.0 0.0 16.28999089631971 0.0 0.0 0.0 34.48637585096406" Properties=species:S:1:pos:R:3:initial_magmoms:R:1 pbc="T T T"
Si      -1.26027585       1.40455638      -1.33145074       0.00000000
Si      -1.50579873      -0.96466122       1.48663952       0.00000000
Si       1.48625073      -1.32351363      -1.30030953       0.00000000
Si       0.75645873       1.92024891       1.19267749       0.00000000
Si       0.73204002      -1.96309161       2.98038324       0.00000000
Si      -2.59594182       0.04623102      -2.68417959       0.00000000
Si      -1.11819447       0.03072294       3.57772209       0.00000000
Si      -2.65183281      -2.64606615       0.17339759       0.00000000
Si       1.32603858       1.12650237       3.33583451       0.00000000
Si       0.12064374      -2.67232563      -2.67952393       0.00000000
