10
Lattice="16.28999089631971 0.0 0.0 0.0 16.28999089631971 0.0 0.0 0.0 34.48637585096406" Properties=species:S:1:pos:R:3:initial_magmoms:R:1 pbc="T T T"
Si       0.16744491      -2.24901369       0.62903185       0.00000000
Si      -1.01349864      -0.25611138      -2.10201476       0.00000000
Si      -1.11838995       1.37982816       1.57020006       0.00000000
Si       1.80234189       1.55732400      -0.53857403       0.00000000
Si      -1.92779118       2.66510916      -0.20974626       0.00000000
Si      -2.85608986       1.14458427      -1.81267390       0.00000000
Si       3.55991886      -0.43908066      -0.17581164       0.00000000
Si       0.75228849       2.28328785       2.73146044       0.00000000
Si       0.19570806       3.57555726      -0.73556032       0.00000000
Si       0.94152942      -3.26299451      -1.39611273       0.00000000
