10
Lattice="16.28999089631971 0.0 0.0 0.0 16.28999089631971 0.0 0.0 0.0 34.48637585096406" Properties=species:S:1:pos:R:3:initial_magmoms:R:1 pbc="T T T"
Si      -0.04238658       0.10673208      -2.33034918       0.00000000
Si      -1.97602587      -0.66499038       1.26702123       0.00000000
Si       0.79689051       1.95652674       1.34917817       0.00000000
Si       1.87791120      -1.86069267       0.02258859       0.00000000
Si      -0.64340613      -2.09113101       2.77931863       0.00000000
Si       2.10510783       0.63153072       2.79061637       0.00000000
Si       0.76216023      -3.42736713       1.37857782       0.00000000
Si       3.48384456      -0.71832384       1.34177394       0.00000000
Si      -0.99028539       2.10468429      -3.32028115       0.00000000
Si      -0.35150562      -2.35053297      -3.36290633       0.00000000
