10
Lattice="16.28999089631971 0.0 0.0 0.0 16.28999089631971 0.0 0.0 0.0 34.48637585096406" Properties=species:S:1:pos:R:3:initial_magmoms:R:1 pbc="T T T"
Si      -1.34384355      -1.33071381      -1.38081802       0.00000000
Si      -1.35391077       1.35654975       1.35493598       0.00000000
Si       1.35814617      -1.35630540       1.35586711       0.00000000
Si       1.34469063       1.36031274      -1.38703936       0.00000000
Si       0.13620069      -2.59209738      -2.74234779       0.00000000
Si      -2.71382278      -0.00076563       2.71256189       0.00000000
Si       0.00074934      -2.71438641       2.71214806       0.00000000
Si       0.00102627       2.71554300       2.71187217       0.00000000
Si      -2.71359472       2.71476108      -0.00655242       0.00000000
Si       2.71604799       0.00009774       2.71269984       0.00000000
