10
Lattice="16.28999089631971 0.0 0.0 0.0 16.28999089631971 0.0 0.0 0.0 34.48637585096406" Properties=species:S:1:pos:R:3:initial_magmoms:R:1 pbc="T T T"
Si      -1.35786924      -1.35653346       1.35752246       0.00000000
Si      -1.35757602       1.35770634      -1.35752246       0.00000000
Si       1.35782037      -1.35778779      -1.35735003       0.00000000
Si       1.35786924       1.35738054       1.35776386       0.00000000
Si      -2.71264338      -0.00112401      -2.71463108       0.00000000
Si      -0.00004887      -2.71336014      -2.71466556       0.00000000
Si      -0.00017919       2.71578735      -2.71380341       0.00000000
Si      -2.71653669       0.00247608       2.71311368       0.00000000
Si      -2.71508688       2.71464705       0.00006897       0.00000000
Si      -2.71471221      -2.71533123      -0.00003449       0.00000000
