10
Lattice="16.28999089631971 0.0 0.0 0.0 16.28999089631971 0.0 0.0 0.0 34.48637585096406" Properties=species:S:1:pos:R:3:initial_magmoms:R:1 pbc="T T T"
Si      -0.15547176      -2.05136712      -1.14998333       0.00000000
Si       1.63791063      -1.13088438       1.34069310       0.00000000
Si      -2.19401865       0.08780310       1.06528475       0.00000000
Si       1.30456836       2.04196779      -1.03431596       0.00000000
Si      -1.95844896       2.25899946       1.95041256       0.00000000
Si      -0.72505161      -1.25762058      -3.29314036       0.00000000
Si       3.69947529      -0.33783831       0.57916452       0.00000000
Si       1.36420605      -1.02288168       3.65490264       0.00000000
Si       2.55836079       0.94574853      -2.99948870       0.00000000
Si       3.56726565       1.97657973       0.31134318       0.00000000
