10
Lattice="16.28999089631971 0.0 0.0 0.0 16.28999089631971 0.0 0.0 0.0 34.48637585096406" Properties=species:S:1:pos:R:3:initial_magmoms:R:1 pbc="T T T"
Si      -1.34469063      -1.36031274       1.38703936       0.00000000
Si       1.36930482       1.35720135       1.38065938       0.00000000
Si       1.51917282      -1.21367016      -1.38050764       0.00000000
Si      -1.33463970       1.33540533      -1.61408399       0.00000000
Si       2.41424316       0.60779619      -2.75975795       0.00000000
Si       0.62859852       2.37211722      -2.88221913       0.00000000
Si      -2.67791310       2.70060851       0.00671105       0.00000000
Si      -2.68853418      -2.69102655       0.00622135       0.00000000
Si       2.74062960      -2.69733078       0.02748221       0.00000000
Si      -2.69860140      -0.00376299       2.74197534       0.00000000
