10
Lattice="16.28999089631971 0.0 0.0 0.0 16.28999089631971 0.0 0.0 0.0 34.48637585096406" Properties=species:S:1:pos:R:3:initial_magmoms:R:1 pbc="T T T"
Si       1.31461929       1.45045022      -1.41956348       0.00000000
Si      -1.29730302      -1.14305301      -1.70228295       0.00000000
Si      -1.11902526       1.21415886       1.90402836       0.00000000
Si       1.16374131      -1.61411094       1.81670881       0.00000000
Si       0.61250400       0.60206211       3.31890169       0.00000000
Si       2.41753374      -2.71033020      -0.14846393       0.00000000
Si      -2.42499456      -2.80859148      -0.47556739       0.00000000
Si       2.56000608       0.01210347      -2.94831089       0.00000000
Si       2.92350114       2.59704207      -0.07918076       0.00000000
Si      -0.14502987       2.71802627      -2.92137702       0.00000000
