10
Lattice="16.28999089631971 0.0 0.0 0.0 16.28999089631971 0.0 0.0 0.0 34.48637585096406" Properties=species:S:1:pos:R:3:initial_magmoms:R:1 pbc="T T T"
Si      -2.30277069       0.30151161      -0.36507298       0.00000000
Si       1.86847929       1.47442812       0.12777209       0.00000000
Si      -0.48011517      -0.45908478       2.30955388       0.00000000
Si       0.84077577      -1.29029832      -1.89161326       0.00000000
Si      -2.68263720      -1.95243795      -1.04655863       0.00000000
Si       1.55448954       2.55532500      -1.96272421       0.00000000
Si       1.63072674       0.54739287      -3.21644261       0.00000000
Si       3.71281680       0.01793529      -0.18829572       0.00000000
Si       2.94244641      -2.02007403      -1.21326587       0.00000000
Si      -2.55407652       2.39536046      -1.52116040       0.00000000
