10
Lattice="16.28999089631971 0.0 0.0 0.0 16.28999089631971 0.0 0.0 0.0 34.48637585096406" Properties=species:S:1:pos:R:3:initial_magmoms:R:1 pbc="T T T"
Si       1.33972218       1.35689184       1.37169637       0.00000000
Si      -1.35676152       1.35422028      -1.35976407       0.00000000
Si       1.35767376      -1.36122172      -1.35945370       0.00000000
Si      -1.35808101      -1.35444834       1.39390560       0.00000000
Si      -2.71474479       2.71124244       0.00096562       0.00000000
Si       2.71520091       2.71104696       0.00127600       0.00000000
Si       0.00045612       2.71187775      -2.71694167       0.00000000
Si      -2.71450044      -0.00260640      -2.71683821       0.00000000
Si       2.71445157      -2.71750728      -0.00048281       0.00000000
Si       2.71524978      -0.00259011      -2.71697615       0.00000000
