10
Lattice="16.28999089631971 0.0 0.0 0.0 16.28999089631971 0.0 0.0 0.0 34.48637585096406" Properties=species:S:1:pos:R:3:initial_magmoms:R:1 pbc="T T T"
Si      -1.48514301      -1.72288483      -0.71348903       0.00000000
Si       2.20408587      -0.50277130       0.78749683       0.00000000
Si       0.15016122       1.23882355      -2.05242332       0.00000000
Si      -1.26434835       1.35394498       1.54540434       0.00000000
Si      -0.53550117       3.28331629       0.44901286       0.00000000
Si       1.80494829      -2.79331702       1.11694537       0.00000000
Si      -1.86994539       2.52032527      -1.73204471       0.00000000
Si      -2.26590642      -2.51193985       1.34907329       0.00000000
Si      -0.30076227       0.98393392       3.61051865       0.00000000
Si      -0.19202652      -2.97104092       2.40135667       0.00000000
