10
Lattice="16.28999089631971 0.0 0.0 0.0 16.28999089631971 0.0 0.0 0.0 34.48637585096406" Properties=species:S:1:pos:R:3:initial_magmoms:R:1 pbc="T T T"
Si      -0.27009635      -1.66997261      -1.67952193       0.00000000
Si       0.40504433       2.06208594      -1.17408932       0.00000000
Si      -2.07250732      -1.07448840       0.74700980       0.00000000
Si       1.03664184       0.26407719       2.21754467       0.00000000
Si      -0.67117244       2.22135327       2.21510003       0.00000000
Si      -2.08467595      -0.78677442      -2.93655103       0.00000000
Si      -1.70950096       2.95779159      -1.57982176       0.00000000
Si      -1.30831084      -2.74456364       2.37902366       0.00000000
Si       0.31028703      -1.56552927       3.61367558       0.00000000
Si       0.12539390      -3.86645498       0.91695876       0.00000000
