10
Lattice="16.28999089631971 0.0 0.0 0.0 16.28999089631971 0.0 0.0 0.0 34.48637585096406" Properties=species:S:1:pos:R:3:initial_magmoms:R:1 pbc="T T T"
Si      -1.34063442      -1.35125550      -1.37456219       0.00000000
Si      -1.35459495       1.36052451       1.35500495       0.00000000
Si       1.35969372      -1.35452979       1.35655684       0.00000000
Si       1.38323277       1.32572907      -1.36668894       0.00000000
Si       0.11331324       2.79135666      -2.62710806       0.00000000
Si       0.00143352      -2.71342530       2.71283779       0.00000000
Si       2.71427238      -2.71202436      -0.00369004       0.00000000
Si      -2.71379997       0.00144981       2.71297573       0.00000000
Si       2.71585251       0.00128691       2.71287227       0.00000000
Si      -2.71507059      -2.71425609      -0.00724214       0.00000000
