10
Lattice="16.28999089631971 0.0 0.0 0.0 16.28999089631971 0.0 0.0 0.0 34.48637585096406" Properties=species:S:1:pos:R:3:initial_magmoms:R:1 pbc="T T T"
Si       1.35529542      -1.35936792      -1.36062623       0.00000000
Si      -1.35858600       1.35669636      -1.36041931       0.00000000
Si       1.34671059       1.35400851       1.38286996       0.00000000
Si      -1.35079938      -1.36795275       1.37880056       0.00000000
Si       2.71568961       2.71433754      -0.00031038       0.00000000
Si       2.71353933      -2.71696023      -0.00010346       0.00000000
Si       2.71402803      -0.00115659      -2.71825215       0.00000000
Si      -0.00138465       2.71466334      -2.71811420       0.00000000
Si      -2.71640637      -2.71676475      -0.00041384       0.00000000
Si      -0.00120546      -2.71612944      -2.71832112       0.00000000
