10
Lattice="16.28999089631971 0.0 0.0 0.0 16.28999089631971 0.0 0.0 0.0 34.48637585096406" Properties=species:S:1:pos:R:3:initial_magmoms:R:1 pbc="T T T"
Si      -1.35262453      -1.36951659      -1.33791004       0.00000000
Si      -1.35694138       1.35861858       1.36328169       0.00000000
Si       1.35890203      -1.35816246       1.36259196       0.00000000
Si       1.37287885       1.37661903      -1.37626926       0.00000000
Si      -0.01734233      -2.72995476      -2.66341533       0.00000000
Si      -2.58722734      -0.06524145      -2.80410258       0.00000000
Si      -2.71047748      -2.71342530       0.00672485       0.00000000
Si      -2.71360516       2.71521720       0.00448323       0.00000000
Si       2.71600564       2.71420722       0.00637998       0.00000000
Si      -2.71238341       0.00016290       2.71983852       0.00000000
