10
Lattice="16.28999089631971 0.0 0.0 0.0 16.28999089631971 0.0 0.0 0.0 34.48637585096406" Properties=species:S:1:pos:R:3:initial_magmoms:R:1 pbc="T T T"
Si       1.35757602       1.35602847       1.35693619       0.00000000
Si       1.35698958      -1.35747828      -1.35738451       0.00000000
Si      -1.35734796       1.35785295      -1.35728105       0.00000000
Si      -1.35873261      -1.35821133       1.35762592       0.00000000
Si       0.00083079      -2.71329498      -2.71369995       0.00000000
Si      -2.71345788       0.00175932      -2.71525183       0.00000000
Si       2.71671588       0.00078192       2.71201011       0.00000000
Si       2.71471221      -2.71503801       0.00006897       0.00000000
Si       2.71484253       2.71500543       0.00024140       0.00000000
Si      -2.71523349      -2.71497285      -0.00006897       0.00000000
