10
Lattice="16.28999089631971 0.0 0.0 0.0 16.28999089631971 0.0 0.0 0.0 34.48637585096406" Properties=species:S:1:pos:R:3:initial_magmoms:R:1 pbc="T T T"
Si      -0.48936789      -2.06821098       0.93706433       0.00000000
Si       1.52432046      -0.35087031      -1.72549229       0.00000000
Si       0.55829088       1.33706691       1.85657508       0.00000000
Si      -1.71981675       0.32848785      -1.59299556       0.00000000
Si       0.59637690      -2.25841302      -2.79826059       0.00000000
Si      -1.09649619      -3.37176936      -0.91430331       0.00000000
Si      -1.85202639       2.64290589      -1.86081691       0.00000000
Si       0.77867829       3.50028117       1.03721282       0.00000000
Si       1.41592680      -2.87974620       1.99827968       0.00000000
Si      -1.29108024       1.33131654       3.35407782       0.00000000
