10
Lattice="16.28999089631971 0.0 0.0 0.0 16.28999089631971 0.0 0.0 0.0 34.48637585096406" Properties=species:S:1:pos:R:3:initial_magmoms:R:1 pbc="T T T"
Si      -0.27370458       0.10800270       2.31420954       0.00000000
Si       2.06156466       0.79304607      -0.76152858       0.00000000
Si       0.37888911      -2.34690030      -0.20012455       0.00000000
Si      -1.63791063       1.13088438      -1.34069310       0.00000000
Si      -1.79338239      -0.92048274      -2.49067643       0.00000000
Si      -2.32600023      -1.11169476       2.61393080       0.00000000
Si       1.36365219      -1.45332864       3.12701939       0.00000000
Si      -0.21831858      -2.73002481      -2.54582017       0.00000000
Si       1.92935502       3.10746411      -1.02934992       0.00000000
Si       3.78138141       0.46455822       0.83146699       0.00000000
