10
Lattice="16.28999089631971 0.0 0.0 0.0 16.28999089631971 0.0 0.0 0.0 34.48637585096406" Properties=species:S:1:pos:R:3:initial_magmoms:R:1 pbc="T T T"
Si      -0.13220964       2.31441804      -0.26782134       0.00000000
Si      -2.06156466      -0.79304607       0.76152858       0.00000000
Si       1.71981675      -0.32848785       1.59299556       0.00000000
Si       0.45216153       0.15123636      -2.34497141       0.00000000
Si       3.24413721      -0.67935816      -0.13249673       0.00000000
Si       1.65069828       2.24002161      -1.89264785       0.00000000
Si      -1.68267555      -3.13994637       0.56140403       0.00000000
Si       2.31619365      -2.58690087      -1.20526502       0.00000000
Si       1.23044886      -2.39669883       2.53005989       0.00000000
Si      -2.39490693       2.37980610      -1.61348048       0.00000000
