10
Lattice="16.28999089631971 0.0 0.0 0.0 16.28999089631971 0.0 0.0 0.0 34.48637585096406" Properties=species:S:1:pos:R:3:initial_magmoms:R:1 pbc="T T T"
Si       0.08039115       2.14979130      -0.97110240       0.00000000
Si      -0.33298389       0.32842269       2.32752129       0.00000000
Si      -1.82291616      -1.42184007      -0.58847585       0.00000000
Si       1.96141374      -1.20288618      -0.68079593       0.00000000
Si       1.30647429      -1.17149535       2.97517579       0.00000000
Si      -3.29647698      -1.22161968       1.18412486       0.00000000
Si       0.76163895      -3.17964510       1.78132577       0.00000000
Si      -1.21867119      -3.49071894       0.45549631       0.00000000
Si       1.47040056      -2.13783444      -2.80208858       0.00000000
Si       3.74165010       0.31947948      -0.78273771       0.00000000
