10
Lattice="16.28999089631971 0.0 0.0 0.0 16.28999089631971 0.0 0.0 0.0 34.48637585096406" Properties=species:S:1:pos:R:3:initial_magmoms:R:1 pbc="T T T"
Si       0.38126745       0.25961373      -2.36883599       0.00000000
Si       0.79294833       2.34538533      -0.06807614       0.00000000
Si       1.86315246      -1.55331666       0.64061928       0.00000000
Si      -2.29061835      -1.08603801      -0.65213773       0.00000000
Si      -1.98123867      -0.07791507       2.36291610       0.00000000
Si       2.34642789       1.78310340      -1.92140950       0.00000000
Si      -1.31973435      -3.04882011      -1.49967538       0.00000000
Si       0.65783907      -2.91840237       2.10092640       0.00000000
Si      -1.25819073       1.75953177      -3.01649050       0.00000000
Si      -3.10619349       0.60178518      -2.11853374       0.00000000
