10
Lattice="16.28999089631971 0.0 0.0 0.0 16.28999089631971 0.0 0.0 0.0 34.48637585096406" Properties=species:S:1:pos:R:3:initial_magmoms:R:1 pbc="T T T"
Si      -1.33948648      -1.35135324       1.36310581       0.00000000
Si       1.38004824      -1.27663101      -1.41213856       0.00000000
Si       1.37486965       1.36402686       1.35541534       0.00000000
Si      -1.40067172       1.24862850      -1.45940217       0.00000000
Si       2.24951721       0.72039267      -2.53298434       0.00000000
Si       0.37970866       2.19307383      -2.66508896       0.00000000
Si      -2.68191280      -2.71671588      -0.02088151       0.00000000
Si      -2.69382079       0.00659745       2.72073172       0.00000000
Si      -2.68341148       2.73232170      -0.02236788       0.00000000
Si       0.01717730      -2.70795186       2.72190426       0.00000000
