10
Lattice="16.28999089631971 0.0 0.0 0.0 16.28999089631971 0.0 0.0 0.0 34.48637585096406" Properties=species:S:1:pos:R:3:initial_magmoms:R:1 pbc="T T T"
Si       1.35066906       1.34901792       1.36248505       0.00000000
Si      -1.36505313      -1.36199061       1.35965717       0.00000000
Si       1.37275830      -1.30737024      -1.41155574       0.00000000
Si      -1.33268490       1.36900250      -1.42121883       0.00000000
Si      -0.32011479      -2.11139577      -2.78076016       0.00000000
Si      -2.10575943      -0.34707474      -2.90322135       0.00000000
Si       2.57437386       0.18978243      -2.77772536       0.00000000
Si       2.71055826       2.71129850      -0.00591787       0.00000000
Si      -0.00376299       2.70761696       2.72097313       0.00000000
Si       2.70954828      -0.00746526       2.72345615       0.00000000
