10
Lattice="16.28999089631971 0.0 0.0 0.0 16.28999089631971 0.0 0.0 0.0 34.48637585096406" Properties=species:S:1:pos:R:3:initial_magmoms:R:1 pbc="T T T"
Si      -0.13988223      -1.96276581       1.25061463       0.00000000
Si      -0.47876310       1.69590303       1.58089084       0.00000000
Si      -2.07387990       0.45910107      -1.05228337       0.00000000
Si       1.99697481       0.17772390      -1.28441130       0.00000000
Si      -2.77594632       1.78243551       0.88405874       0.00000000
Si      -1.29311649       1.24815609      -3.11484569       0.00000000
Si       2.08176426      -2.34499437       1.94351528       0.00000000
Si       1.52081811      -1.03340502      -3.27137944       0.00000000
Si       2.39611239       2.46826962      -1.61385983       0.00000000
Si       0.19202652       2.97104092      -2.40135667       0.00000000
