10
Lattice="16.28999089631971 0.0 0.0 0.0 16.28999089631971 0.0 0.0 0.0 34.48637585096406" Properties=species:S:1:pos:R:3:initial_magmoms:R:1 pbc="T T T"
Si       1.43370475      -1.12189134      -1.46206490       0.00000000
Si       1.61859788       1.17903436       1.23465192       0.00000000
Si      -0.76419648       1.67007524      -1.63201386       0.00000000
Si      -1.37841093      -1.82069976       1.27506997       0.00000000
Si      -2.43401922      -0.17366407       2.55267710       0.00000000
Si       0.15973974      -1.07162040      -3.39278573       0.00000000
Si       0.28331568       2.53947253       2.56015720       0.00000000
Si      -2.43392148       2.66943416      -0.25224767       0.00000000
Si       2.34495269       3.00864082      -0.16147899       0.00000000
Si      -2.15041032      -0.62525811      -3.13072361       0.00000000
