10
Lattice="16.28999089631971 0.0 0.0 0.0 16.28999089631971 0.0 0.0 0.0 34.48637585096406" Properties=species:S:1:pos:R:3:initial_magmoms:R:1 pbc="T T T"
Si       1.58842554       1.12216923      -1.25788830       0.00000000
Si       1.23460281      -1.30427514       1.46619254       0.00000000
Si      -1.48263435      -1.17431352      -1.34621234       0.00000000
Si      -1.46880414       1.41509601       1.42459850       0.00000000
Si      -0.51377031       1.89910449      -2.86402756       0.00000000
Si       0.18709065      -2.17367244      -2.72597852       0.00000000
Si       3.29623982      -0.83510685      -1.25544366       0.00000000
Si       2.56988501      -2.66471331       0.14068725       0.00000000
Si      -2.76560217      -2.59562254       0.09569630       0.00000000
Si       2.58722734       0.06524145       2.80410258       0.00000000
