10
Lattice="16.28999089631971 0.0 0.0 0.0 16.28999089631971 0.0 0.0 0.0 34.48637585096406" Properties=species:S:1:pos:R:3:initial_magmoms:R:1 pbc="T T T"
Si      -1.23295752      -1.19037613      -1.61644631       0.00000000
Si       1.28865303       1.50963340      -1.54409386       0.00000000
Si       1.46157138      -1.73024302       1.11839379       0.00000000
Si      -2.74980087      -0.65375842       0.99465661       0.00000000
Si      -1.39341402       1.78788289       2.52236943       0.00000000
Si       2.36099671      -0.15107346       2.58689347       0.00000000
Si      -2.62824489      -2.58362725      -0.29796245       0.00000000
Si      -1.74192228      -0.47024017       3.24585951       0.00000000
Si       0.14708241      -2.43996574      -3.00452372       0.00000000
Si      -2.57898393       0.29880258      -2.98386637       0.00000000
