10
Lattice="16.28999089631971 0.0 0.0 0.0 16.28999089631971 0.0 0.0 0.0 34.48637585096406" Properties=species:S:1:pos:R:3:initial_magmoms:R:1 pbc="T T T"
Si      -1.82434968      -0.12357105       1.52095348       0.00000000
Si       0.34850826       2.25812306      -0.72349008       0.00000000
Si       2.25059382      -0.33510322       0.80380890       0.00000000
Si      -1.00787859      -0.18351825      -2.25120290       0.00000000
Si       1.85473053      -2.63496030       1.32217390       0.00000000
Si      -0.69732603       0.90880118       3.36059575       0.00000000
Si       1.74192228       0.47024017      -3.24585951       0.00000000
Si      -1.87232373       3.02844458      -1.11408299       0.00000000
Si      -2.22348726      -2.41411677       1.85040202       0.00000000
Si       0.61460541       3.64651976       1.16384686       0.00000000
