10
Lattice="16.28999089631971 0.0 0.0 0.0 16.28999089631971 0.0 0.0 0.0 34.48637585096406" Properties=species:S:1:pos:R:3:initial_magmoms:R:1 pbc="T T T"
Si       0.72110943      -1.94755325       1.07073360       0.00000000
Si      -1.49972256       1.30968831       1.23744083       0.00000000
Si       1.88214660       1.42567311      -0.33044864       0.00000000
Si      -1.12702365      -1.03237223      -1.83964226       0.00000000
Si       0.69732603      -0.90880118      -3.36059575       0.00000000
Si       1.31193144       2.73771858      -2.19674888       0.00000000
Si      -1.42917057       3.45859995       0.23388673       0.00000000
Si       0.62838675      -3.67667159      -0.59913214       0.00000000
Si      -3.63187179       0.45433299       0.98337956       0.00000000
Si      -0.53929674      -2.23104812       3.04335540       0.00000000
