10
Lattice="16.28999089631971 0.0 0.0 0.0 16.28999089631971 0.0 0.0 0.0 34.48637585096406" Properties=species:S:1:pos:R:3:initial_magmoms:R:1 pbc="T T T"
Si       1.35433431      -1.35795069      -1.35762592       0.00000000
Si       1.35591444       1.35715248       1.35824667       0.00000000
Si      -1.36031274      -1.35804843       1.35790181       0.00000000
Si      -1.36415718       1.35840681      -1.35945370       0.00000000
Si       2.69382079      -0.00659745      -2.72073172       0.00000000
Si      -2.69293248      -0.03360627      -2.72165941       0.00000000
Si       2.71099809      -2.71454931       0.00117254       0.00000000
Si       2.71144843       2.71609686       0.00317275       0.00000000
Si       2.71259711      -0.00053757       2.71535529       0.00000000
Si      -0.00245979       2.71443528       2.71552772       0.00000000
