10
Lattice="16.28999089631971 0.0 0.0 0.0 16.28999089631971 0.0 0.0 0.0 34.48637585096406" Properties=species:S:1:pos:R:3:initial_magmoms:R:1 pbc="T T T"
Si       1.34915409       1.33125138       1.36366104       0.00000000
Si       1.35314514      -1.35812988      -1.35497046       0.00000000
Si      -1.35913986       1.35524655      -1.35507392       0.00000000
Si      -1.36331010      -1.34364807       1.37697278       0.00000000
Si      -0.05698242       2.56129299       2.77201644       0.00000000
Si       2.71318355      -0.00074934      -2.71194114       0.00000000
Si      -0.00187335       2.71422351      -2.71176871       0.00000000
Si      -0.00200367      -2.71581993      -2.71194114       0.00000000
Si      -2.71671588      -0.00078192      -2.71201011       0.00000000
Si       2.71443528      -2.71441899       0.00741457       0.00000000
