10
Lattice="16.28999089631971 0.0 0.0 0.0 16.28999089631971 0.0 0.0 0.0 34.48637585096406" Properties=species:S:1:pos:R:3:initial_magmoms:R:1 pbc="T T T"
Si       1.35167319       1.36122498       1.35524636       0.00000000
Si       1.35448648      -1.35883035      -1.36010894       0.00000000
Si      -1.36156707       1.35769005      -1.35852256       0.00000000
Si      -1.36674729      -1.38232053       1.35903986       0.00000000
Si      -0.04670343       2.55668292       2.81012391       0.00000000
Si       2.71035368      -2.71140534      -0.00344864       0.00000000
Si       2.71098899       2.71288773       0.00072421       0.00000000
Si       2.71180349       0.00076563      -2.71649334       0.00000000
Si      -2.71590138      -2.71357191      -0.00462118       0.00000000
Si      -2.71487511       2.71472850      -0.00051730       0.00000000
