10
Lattice="16.28999089631971 0.0 0.0 0.0 16.28999089631971 0.0 0.0 0.0 34.48637585096406" Properties=species:S:1:pos:R:3:initial_magmoms:R:1 pbc="T T T"
Si      -2.26546659       0.38612187      -0.32589643       0.00000000
Si       1.11905362       2.03476761      -0.22336838       0.00000000
Si       0.67197294      -0.64229841       2.14612285       0.00000000
Si       0.84302935      -1.36581876      -1.75387460       0.00000000
Si      -1.85976414       2.13995214      -1.92589274       0.00000000
Si      -1.10271897      -2.83312422      -1.65486416       0.00000000
Si       2.78569493      -1.49666004       1.63627599       0.00000000
Si       3.02273072       1.35565380      -1.42373634       0.00000000
Si      -0.36499374      -2.75224437       2.36021440       0.00000000
Si       2.55396968      -2.65085541      -0.45973813       0.00000000
