10
Lattice="16.28999089631971 0.0 0.0 0.0 16.28999089631971 0.0 0.0 0.0 34.48637585096406" Properties=species:S:1:pos:R:3:initial_magmoms:R:1 pbc="T T T"
Si       1.35330804      -1.35703845      -1.35800527       0.00000000
Si       1.36860435       1.33760448       1.36459217       0.00000000
Si      -1.36044306       1.35871632      -1.35769489       0.00000000
Si      -1.35858600      -1.36462959       1.37514501       0.00000000
Si      -0.01143558       2.58719409       2.75266957       0.00000000
Si       2.71246411       0.00057015      -2.71563118       0.00000000
Si       2.71487511      -2.71472850       0.00051730       0.00000000
Si      -2.71608057      -2.71358820       0.00182778       0.00000000
Si      -0.00289962      -2.71407690      -2.71587259       0.00000000
Si       2.71520091       2.71609264       0.00296583       0.00000000
