10
Lattice="16.28999089631971 0.0 0.0 0.0 16.28999089631971 0.0 0.0 0.0 34.48637585096406" Properties=species:S:1:pos:R:3:initial_magmoms:R:1 pbc="T T T"
Si      -2.27056699      -0.37688544       0.61378886       0.00000000
Si       1.12725171       1.60910991       1.34772832       0.00000000
Si       1.27716858      -1.91904345       0.60392575       0.00000000
Si       0.15512967      -0.74482767      -2.26958415       0.00000000
Si      -0.97500537      -2.79520110      -1.71321514       0.00000000
Si       3.21284412       1.24540308       0.42238937       0.00000000
Si      -1.84487182      -1.63416393       2.54350959       0.00000000
Si       3.26642193      -0.92317059       1.44277283       0.00000000
Si      -3.06242878      -1.75032792      -1.15125933       0.00000000
Si      -0.80638758       0.97601535      -3.55099513       0.00000000
