10
Lattice="16.28999089631971 0.0 0.0 0.0 16.28999089631971 0.0 0.0 0.0 34.48637585096406" Properties=species:S:1:pos:R:3:initial_magmoms:R:1 pbc="T T T"
Si      -1.52459739      -1.72871109       0.01058732       0.00000000
Si       1.86707902      -0.90694575      -1.01593471       0.00000000
Si      -0.45054882       1.80085950      -1.47460377       0.00000000
Si       0.69901434       0.64703880       2.19233462       0.00000000
Si      -0.53924787       2.58547942       2.13943249       0.00000000
Si       3.24668564       0.96011631      -0.31937851       0.00000000
Si       0.28862622       3.42810574       0.09642396       0.00000000
Si       2.43933695      -2.43019107       0.70762634       0.00000000
Si      -1.03439871      -2.96844525      -1.96841446       0.00000000
Si      -1.23290865      -2.88859167       2.05614785       0.00000000
