10
Lattice="16.28999089631971 0.0 0.0 0.0 16.28999089631971 0.0 0.0 0.0 34.48637585096406" Properties=species:S:1:pos:R:3:initial_magmoms:R:1 pbc="T T T"
Si      -0.21520719       2.27984156      -0.50553607       0.00000000
Si       2.31015006      -0.44636229      -0.26206212       0.00000000
Si      -1.21127553      -1.47232278      -1.41625279       0.00000000
Si       1.38621384       2.29533335       1.49870976       0.00000000
Si       1.37404521       2.58304733      -2.18485108       0.00000000
Si       2.41961886      -2.08150362      -1.90585614       0.00000000
Si       3.18862482       1.69984914      -0.92782197       0.00000000
Si      -2.85031017      -2.40570720       0.24937112       0.00000000
Si       0.37452339      -3.20590458      -1.97789822       0.00000000
Si       2.15041032       0.62525811       3.13072361       0.00000000
