10
Lattice="16.28999089631971 0.0 0.0 0.0 16.28999089631971 0.0 0.0 0.0 34.48637585096406" Properties=species:S:1:pos:R:3:initial_magmoms:R:1 pbc="T T T"
Si      -2.11454530       0.89570565      -0.40573244       0.00000000
Si       1.76176513       1.03461048      -1.18840118       0.00000000
Si      -0.40504433      -2.06208594       1.17408932       0.00000000
Si      -1.07621677       0.15926733       3.38918935       0.00000000
Si      -2.96055016      -0.55364823      -2.08749598       0.00000000
Si      -3.17841262       0.93620259       1.78305009       0.00000000
Si      -0.67514068      -3.73205855      -0.50543261       0.00000000
Si       0.95236390       2.31989148      -2.96834749       0.00000000
Si       0.63159751      -1.79800875       3.39163399       0.00000000
Si       2.88015508      -0.34521768      -2.75860123       0.00000000
