10
Lattice="16.28999089631971 0.0 0.0 0.0 16.28999089631971 0.0 0.0 0.0 34.48637585096406" Properties=species:S:1:pos:R:3:initial_magmoms:R:1 pbc="T T T"
Si      -1.86980855       1.47268116      -0.13210462       0.00000000
Si       0.50761269       0.22530699      -2.34513491       0.00000000
Si       1.97674263       0.76610241       1.15705304       0.00000000
Si      -0.86946898      -1.99702368       1.12084578       0.00000000
Si       0.49669839       2.02748598       2.51858282       0.00000000
Si      -2.24951721      -0.72039267       2.53298434       0.00000000
Si      -0.73446560       3.41340660       0.92886001       0.00000000
Si      -2.61699569       1.30942278      -2.48708092       0.00000000
Si      -3.65018894       0.52823583       1.07358217       0.00000000
Si      -0.87464757       0.64363419       3.88839968       0.00000000
