10
Lattice="16.28999089631971 0.0 0.0 0.0 16.28999089631971 0.0 0.0 0.0 34.48637585096406" Properties=species:S:1:pos:R:3:initial_magmoms:R:1 pbc="T T T"
Si       1.34384355       1.33071381       1.38081802       0.00000000
Si       1.48004424      -1.26138357      -1.36152978       0.00000000
Si      -1.37134596      -1.38385179       1.36981686       0.00000000
Si      -1.23116399       1.38592062      -1.58972280       0.00000000
Si      -0.49669839      -2.02748598      -2.51858282       0.00000000
Si      -2.36650694      -0.55480482      -2.65068744       0.00000000
Si       2.68853418       2.69102655      -0.00622135       0.00000000
Si      -2.71148734       2.67449220       0.00042763       0.00000000
Si      -0.01006722       2.68726356       2.73575400       0.00000000
Si       2.70198972      -0.02559159       2.73668513       0.00000000
