10
Lattice="16.28999089631971 0.0 0.0 0.0 16.28999089631971 0.0 0.0 0.0 34.48637585096406" Properties=species:S:1:pos:R:3:initial_magmoms:R:1 pbc="T T T"
Si       1.35720431       1.35549090       1.35645338       0.00000000
Si      -1.35668267       1.35769005      -1.35710862       0.00000000
Si       1.35707073      -1.35720135      -1.35766040       0.00000000
Si      -1.36003841      -1.35738054       1.35697068       0.00000000
Si      -2.71318355       0.00074934       2.71194114       0.00000000
Si       2.71307151       0.00291591       2.71311368       0.00000000
Si      -2.71259711       0.00053757      -2.71535529       0.00000000
Si      -0.00159902      -2.71401174      -2.71418276       0.00000000
Si      -0.00114867       2.71663443      -2.71218254       0.00000000
Si       2.71452132       2.71508688       0.00006897       0.00000000
