10
Lattice="16.28999089631971 0.0 0.0 0.0 16.28999089631971 0.0 0.0 0.0 34.48637585096406" Properties=species:S:1:pos:R:3:initial_magmoms:R:1 pbc="T T T"
Si       1.35586720      -1.35257499       1.35666030       0.00000000
Si      -1.35720431      -1.35549090      -1.35645338       0.00000000
Si       1.35731701       1.35959598      -1.35638441       0.00000000
Si      -1.35448648       1.35883035       1.36010894       0.00000000
Si       2.69153317       0.00575037       2.70938915       0.00000000
Si       2.71453465      -2.71158453       0.00106908       0.00000000
Si      -0.00013358      -2.71269225      -2.71411378       0.00000000
Si      -2.71388698       0.00219915      -2.71356200       0.00000000
Si       2.71482787       0.00265527      -2.71397584       0.00000000
Si       0.00025575       2.71627605      -2.71356200       0.00000000
