10
Lattice="16.28999089631971 0.0 0.0 0.0 16.28999089631971 0.0 0.0 0.0 34.48637585096406" Properties=species:S:1:pos:R:3:initial_magmoms:R:1 pbc="T T T"
Si       2.11372198      -0.85436163      -0.50984687       0.00000000
Si      -0.67197294       0.64229841      -2.14612285       0.00000000
Si      -1.03696668      -2.10994596       0.21409154       0.00000000
Si       0.07830114       2.12131638       1.32858837       0.00000000
Si       0.44708068       2.67706602      -2.36949124       0.00000000
Si      -3.04583319      -1.50045561       1.25175268       0.00000000
Si       2.47319341       2.21410422       1.64944979       0.00000000
Si       1.88199673      -2.00855700      -2.60586099       0.00000000
Si       3.71322079       0.82841166       0.10066579       0.00000000
Si      -2.06084205       2.09227131       2.47291594       0.00000000
