10
Lattice="16.28999089631971 0.0 0.0 0.0 16.28999089631971 0.0 0.0 0.0 34.48637585096406" Properties=species:S:1:pos:R:3:initial_magmoms:R:1 pbc="T T T"
Si       1.23116399      -1.38592062       1.58972280       0.00000000
Si      -1.13534295      -1.94072544      -1.06096463       0.00000000
Si       1.17493091       1.41245703      -1.69638030       0.00000000
Si      -1.48032335       1.28857158       1.59015044       0.00000000
Si       0.73446560      -3.41340660      -0.92886001       0.00000000
Si       2.58505847       2.64051126      -0.03058254       0.00000000
Si       2.71120823      -2.64730419       0.22819303       0.00000000
Si      -0.34316840       3.05874072      -2.39738525       0.00000000
Si       2.57500754      -0.05520681       2.97054082       0.00000000
Si      -3.15528408       2.35993230       0.33974962       0.00000000
