10
Lattice="16.28999089631971 0.0 0.0 0.0 16.28999089631971 0.0 0.0 0.0 34.48637585096406" Properties=species:S:1:pos:R:3:initial_magmoms:R:1 pbc="T T T"
Si       1.73196909      -1.35149985       0.84305442       0.00000000
Si      -1.08050267       1.62734235       1.35441868       0.00000000
Si      -1.31462906      -1.93300398      -0.50932957       0.00000000
Si       0.77900409       1.31213052      -1.90089010       0.00000000
Si       3.01348710      -1.47326760      -1.15798418       0.00000000
Si      -3.19641470      -0.76540194      -1.33831354       0.00000000
Si      -1.87319429       3.12482015      -0.29930742       0.00000000
Si      -0.59636713      -1.62411300       3.23568602       0.00000000
Si      -2.80055141       1.53445514      -1.85667854       0.00000000
Si       2.24510409      -0.17374914      -3.05504628       0.00000000
