10
Lattice="10.86 0.0 0.0 0.0 10.86 0.0 0.0 0.0 10.86" Properties=species:S:1:pos:R:3:initial_magmoms:R:1 pbc="T T T"
Si       1.41195204       1.26783984      -1.29028746       0.00000000
Si      -1.30304796       1.26783984       1.42471254       0.00000000
Si      -1.30304796      -1.44716016      -1.29028746       0.00000000
Si       0.05445204       2.62533984      -2.64778746       0.00000000
Si      -2.66054796       2.62533984       0.06721254       0.00000000
Si      -2.66054796      -0.08966016      -2.64778746       0.00000000
Si       2.76945204       2.62533984       0.06721254       0.00000000
Si       0.05445204       2.62533984       2.78221254       0.00000000
Si       2.76945204      -0.08966016      -2.64778746       0.00000000
Si      -2.66054796      -0.08966016       2.78221254       0.00000000
