10
Lattice="10.86 0.0 0.0 0.0 10.86 0.0 0.0 0.0 10.86" Properties=species:S:1:pos:R:3:initial_magmoms:R:1 pbc="T T T"
Si       1.30959654      -1.49440116      -1.06012062       0.00000000
Si       1.30959654       1.22059884       1.65487938       0.00000000
Si      -1.48735302       1.35426372      -1.41350502       0.00000000
Si      -1.40540346      -1.49440116       1.65487938       0.00000000
Si       2.70560610      -0.46349394      -2.12909214       0.00000000
Si       2.65793070       2.52694824       0.37891626       0.00000000
Si      -0.04790346      -2.85190116      -2.41762062       0.00000000
Si      -2.89863174       2.38387860       0.07068774       0.00000000
Si      -2.95976268      -0.09234258      -2.30982426       0.00000000
Si       2.66709654      -2.85190116       0.29737938       0.00000000
