10
Lattice="10.86 0.0 0.0 0.0 10.86 0.0 0.0 0.0 10.86" Properties=species:S:1:pos:R:3:initial_magmoms:R:1 pbc="T T T"
Si       1.19552310      -1.37160714      -1.30822818       0.00000000
Si      -1.51947690       1.34339286      -1.30822818       0.00000000
Si      -1.51947690      -1.37160714       1.40677182       0.00000000
Si       1.07480334       0.90737472       2.49442254       0.00000000
Si       2.32670070       2.31491760       0.56546934       0.00000000
Si       2.39834412      -2.71807338      -0.03790140       0.00000000
Si       2.55302310      -0.01410714      -2.66572818       0.00000000
Si      -0.16197690       2.70089286      -2.66572818       0.00000000
Si      -0.16197690      -2.72910714      -2.66572818       0.00000000
Si      -2.87697690      -0.01410714      -2.66572818       0.00000000
