10
Lattice="10.86 0.0 0.0 0.0 10.86 0.0 0.0 0.0 10.86" Properties=species:S:1:pos:R:3:initial_magmoms:R:1 pbc="T T T"
Si      -1.22177172       1.55172024      -1.13080836       0.00000000
Si       1.41127872      -1.02961488      -1.48419276       0.00000000
Si      -1.22177172      -1.16327976       1.58419164       0.00000000
Si       1.49322828       1.55172024       1.58419164       0.00000000
Si       1.37250852       1.11570210      -2.75815764       0.00000000
Si      -0.06113094      -2.47622118      -2.38051200       0.00000000
Si      -2.57927172       0.19422024      -2.48830836       0.00000000
Si      -2.57927172      -2.52077976       0.22669164       0.00000000
Si       2.89863174      -2.38387860      -0.07068774       0.00000000
Si       0.14576292       2.98185192      -2.35064700       0.00000000
