10
Lattice="10.86 0.0 0.0 0.0 10.86 0.0 0.0 0.0 10.86" Properties=species:S:1:pos:R:3:initial_magmoms:R:1 pbc="T T T"
Si       1.03659786      -1.36375536      -1.58079246       0.00000000
Si      -1.67840214      -1.36375536       1.13420754       0.00000000
Si       1.32981786       2.05293096       0.80404182       0.00000000
Si      -1.67840214       1.35124464      -1.58079246       0.00000000
Si       2.25638220       0.39016722       2.40663030       0.00000000
Si       2.39409786      -2.72125536      -0.22329246       0.00000000
Si       2.37713454       0.00875316      -2.81102412       0.00000000
Si      -0.32090214      -2.72125536       2.49170754       0.00000000
Si      -0.16326924       2.67801084       2.62145196       0.00000000
Si      -3.03590214      -0.00625536       2.49170754       0.00000000
