10
Lattice="10.86 0.0 0.0 0.0 10.86 0.0 0.0 0.0 10.86" Properties=species:S:1:pos:R:3:initial_magmoms:R:1 pbc="T T T"
Si       1.35843396       1.31222466       1.34573862       0.00000000
Si      -1.35656604       1.31222466      -1.36926138       0.00000000
Si       1.35843396      -1.40277534      -1.36926138       0.00000000
Si       2.71593396       2.66972466      -0.01176138       0.00000000
Si      -0.09367836       2.70016524       2.69374698       0.00000000
Si       0.00093396       2.66972466      -2.72676138       0.00000000
Si       2.71593396      -0.04527534       2.70323862       0.00000000
Si      -2.71406604      -0.04527534      -2.72676138       0.00000000
Si       2.71593396      -0.04527534      -2.72676138       0.00000000
Si       2.71593396      -2.76027534      -0.01176138       0.00000000
