10
Lattice="10.86 0.0 0.0 0.0 10.86 0.0 0.0 0.0 10.86" Properties=species:S:1:pos:R:3:initial_magmoms:R:1 pbc="T T T"
Si       1.68921870      -1.14287382      -0.69904734       0.00000000
Si      -1.28398866      -1.13604288       1.57435248       0.00000000
Si      -1.28398866       1.57895712      -1.14064752       0.00000000
Si       1.43101134       1.57895712       1.57435248       0.00000000
Si       0.25070310      -2.33728920      -2.42457102       0.00000000
Si      -2.64148866      -2.49354288       0.21685248       0.00000000
Si      -2.64148866       0.22145712      -2.49814752       0.00000000
Si       2.77173264       0.34030896      -2.36059476       0.00000000
Si       1.72423134      -3.14935656       1.24418676       0.00000000
Si       0.07351134       2.93645712      -2.49814752       0.00000000
