10
Lattice="10.86 0.0 0.0 0.0 10.86 0.0 0.0 0.0 10.86" Properties=species:S:1:pos:R:3:initial_magmoms:R:1 pbc="T T T"
Si      -1.16973060      -1.59292308       1.07684502       0.00000000
Si       1.25639340       1.82369808       0.41797968       0.00000000
Si      -1.16973060       1.12207692      -1.63815498       0.00000000
Si       1.54526940      -1.59292308      -1.63815498       0.00000000
Si       0.17236992       2.50771518       2.21344176       0.00000000
Si       2.76779046      -0.16600596       2.10151860       0.00000000
Si      -2.52723060      -0.23542308       2.43434502       0.00000000
Si      -2.52723060       2.47957692      -0.28065498       0.00000000
Si       0.18776940      -2.95042308       2.43434502       0.00000000
Si      -2.52723060      -2.95042308      -0.28065498       0.00000000
