10
Lattice="10.86 0.0 0.0 0.0 10.86 0.0 0.0 0.0 10.86" Properties=species:S:1:pos:R:3:initial_magmoms:R:1 pbc="T T T"
Si      -0.58904640       1.88661006      -1.28529186       0.00000000
Si      -1.23196926      -1.47286578       1.39107912       0.00000000
Si       1.48303074       1.24213422       1.39107912       0.00000000
Si       1.48303074      -1.47286578      -1.32392088       0.00000000
Si      -2.66759610       2.65916874      -0.22703916       0.00000000
Si      -2.58946926      -0.11536578       2.74857912       0.00000000
Si       0.12553074       2.59963422       2.74857912       0.00000000
Si       0.69101094       1.90254168      -3.21268122       0.00000000
Si      -2.58946926      -2.83036578       0.03357912       0.00000000
Si       2.49917922       0.06702792      -2.92182870       0.00000000
