10
Lattice="10.86 0.0 0.0 0.0 10.86 0.0 0.0 0.0 10.86" Properties=species:S:1:pos:R:3:initial_magmoms:R:1 pbc="T T T"
Si       0.95529990      -0.99872904      -1.69349754       0.00000000
Si       0.95529990       1.71627096       1.02150246       0.00000000
Si      -1.75970010      -0.99872904       1.02150246       0.00000000
Si       2.31279990      -2.35622904      -0.33599754       0.00000000
Si       2.31279990       0.35877096       2.37900246       0.00000000
Si      -0.40220010      -2.35622904       2.37900246       0.00000000
Si       2.31279990       0.35877096      -3.05099754       0.00000000
Si       2.31279990       3.07377096      -0.33599754       0.00000000
Si      -0.40220010       3.07377096       2.37900246       0.00000000
Si      -3.11720010       0.35877096       2.37900246       0.00000000
