10
Lattice="10.86 0.0 0.0 0.0 10.86 0.0 0.0 0.0 10.86" Properties=species:S:1:pos:R:3:initial_magmoms:R:1 pbc="T T T"
Si      -1.25526396       1.40130924      -1.30692498       0.00000000
Si       1.45973604      -1.31369076      -1.30692498       0.00000000
Si       1.45973604       1.40130924       1.40807502       0.00000000
Si      -2.66063484       0.07480368      -2.50531512       0.00000000
Si      -2.61276396       2.75880924       0.05057502       0.00000000
Si      -2.57969526       0.02278428       2.79609162       0.00000000
Si       0.10223604       2.75880924      -2.66442498       0.00000000
Si       2.81723604       0.04380924      -2.66442498       0.00000000
Si       2.81723604      -2.67119076       0.05057502       0.00000000
Si       0.62593782      -2.18541210      -3.15479742       0.00000000
