10
Lattice="10.86 0.0 0.0 0.0 10.86 0.0 0.0 0.0 10.86" Properties=species:S:1:pos:R:3:initial_magmoms:R:1 pbc="T T T"
Si       1.18777992      -1.15510218      -1.37699370       0.00000000
Si      -1.52722008      -1.15510218       1.33800630       0.00000000
Si       1.18777992       1.55989782       1.33800630       0.00000000
Si      -1.20076848       1.67947728      -1.52858844       0.00000000
Si       2.54527992      -2.51260218      -0.01949370       0.00000000
Si      -0.16972008      -2.51260218       2.69550630       0.00000000
Si       2.54527992       0.20239782       2.69550630       0.00000000
Si      -0.16972008      -2.51260218      -2.73449370       0.00000000
Si       2.45280702       0.28523790      -2.79312684       0.00000000
Si      -2.88472008      -2.51260218      -0.01949370       0.00000000
