10
Lattice="10.86 0.0 0.0 0.0 10.86 0.0 0.0 0.0 10.86" Properties=species:S:1:pos:R:3:initial_magmoms:R:1 pbc="T T T"
Si      -1.26502710      -1.44034008       1.41613314       0.00000000
Si       1.44997290       1.27465992       1.41613314       0.00000000
Si       1.44997290      -1.44034008      -1.29886686       0.00000000
Si      -2.58009708       0.01762578      -2.57827260       0.00000000
Si      -2.45280702      -0.28523790       2.79312684       0.00000000
Si      -2.62252710      -2.79784008       0.05863314       0.00000000
Si       0.34364298       2.74566864      -2.66157966       0.00000000
Si       0.07328328       2.65868004       2.77972560       0.00000000
Si       2.80747290       2.63215992       0.05863314       0.00000000
Si       0.09247290      -2.79784008      -2.65636686       0.00000000
