10
Lattice="10.86 0.0 0.0 0.0 10.86 0.0 0.0 0.0 10.86" Properties=species:S:1:pos:R:3:initial_magmoms:R:1 pbc="T T T"
Si      -1.43534448       1.26962088      -1.27292232       0.00000000
Si       1.27965552       1.26962088       1.44207768       0.00000000
Si      -1.43534448      -1.44537912       1.44207768       0.00000000
Si       2.43611520      -0.33876684      -2.49470490       0.00000000
Si      -0.07784448       2.62712088      -2.63042232       0.00000000
Si       2.63715552       2.62712088       0.08457768       0.00000000
Si      -2.71019988      -0.25325520      -2.62317870       0.00000000
Si       2.61796590      -2.77635900       0.09067014       0.00000000
Si      -2.79284448       2.62712088       0.08457768       0.00000000
Si      -0.07784448       2.62712088       2.79957768       0.00000000
