10
Lattice="10.86 0.0 0.0 0.0 10.86 0.0 0.0 0.0 10.86" Properties=species:S:1:pos:R:3:initial_magmoms:R:1 pbc="T T T"
Si       1.02062280       1.15244148       1.53464832       0.00000000
Si       1.02062280      -1.56255852      -1.18035168       0.00000000
Si      -1.69437720       1.15244148      -1.18035168       0.00000000
Si      -1.81869162      -1.53184644       1.51978098       0.00000000
Si       2.37812280       2.50994148       0.17714832       0.00000000
Si       2.37812280      -0.20505852      -2.53785168       0.00000000
Si      -0.33687720       2.50994148      -2.53785168       0.00000000
Si       2.58768822       0.10343064       2.49580176       0.00000000
Si       2.50696584      -2.75171766       0.18511956       0.00000000
Si      -0.33687720       2.50994148       2.89214832       0.00000000
