10
Lattice="10.86 0.0 0.0 0.0 10.86 0.0 0.0 0.0 10.86" Properties=species:S:1:pos:R:3:initial_magmoms:R:1 pbc="T T T"
Si       1.17005640       1.46636064       1.15659000       0.00000000
Si      -1.54494360      -1.24863936       1.15659000       0.00000000
Si       1.17005640      -1.24863936      -1.55841000       0.00000000
Si       2.52755640       0.10886064       2.51409000       0.00000000
Si      -0.18744360      -2.60613936       2.51409000       0.00000000
Si       2.52755640      -2.60613936      -0.20091000       0.00000000
Si      -0.18744360       2.82386064       2.51409000       0.00000000
Si       2.52755640       2.82386064      -0.20091000       0.00000000
Si      -2.90244360       0.10886064       2.51409000       0.00000000
Si       2.52755640       0.10886064      -2.91591000       0.00000000
