10
Lattice="16.28999089631971 0.0 0.0 0.0 16.28999089631971 0.0 0.0 0.0 34.63643526849801" Properties=species:S:1:pos:R:3:initial_magmoms:R:1 pbc="T T T"
Si       1.34220860       1.35112588       1.37915435       0.00000000
Si      -1.36000822       1.35492634      -1.36197467       0.00000000
Si       1.35684028      -1.36074277      -1.36117803       0.00000000
Si      -1.35986161      -1.36973485       1.37925826       0.00000000
Si      -2.71716070       2.71094992      -0.00228601       0.00000000
Si       2.71174963       2.71671658       0.00200891       0.00000000
Si       2.71085368      -2.71867717      -0.00162791       0.00000000
Si      -0.00120146       2.71220425      -2.71899632       0.00000000
Si       2.71359040      -0.00251250      -2.71847678       0.00000000
Si      -2.71720957      -2.71581013      -0.00006927       0.00000000
