10
Lattice="16.28999089631971 0.0 0.0 0.0 16.28999089631971 0.0 0.0 0.0 34.63643526849801" Properties=species:S:1:pos:R:3:initial_magmoms:R:1 pbc="T T T"
Si      -1.35626305       1.35368271      -1.36467631       0.00000000
Si       1.36047564      -1.36086334      -1.36349867       0.00000000
Si       1.35185823       1.36963062       1.37465161       0.00000000
Si      -1.36954102      -1.36559070       1.37714544       0.00000000
Si      -2.71260170       2.70697446      -0.00464128       0.00000000
Si       2.71622718       2.71081890      -0.00422565       0.00000000
Si      -2.71174963      -2.71671658      -0.00200891       0.00000000
Si       0.00229689       2.71080261      -2.72062424       0.00000000
Si      -2.71295109      -0.00451233      -2.72100524       0.00000000
Si       2.71624347      -2.72050903      -0.00038100       0.00000000
