10
Lattice="16.28999089631971 0.0 0.0 0.0 16.28999089631971 0.0 0.0 0.0 34.63643526849801" Properties=species:S:1:pos:R:3:initial_magmoms:R:1 pbc="T T T"
Si       1.82798072       1.38648492      -0.67461423       0.00000000
Si      -1.64886633      -0.51912972      -1.69541982       0.00000000
Si       1.33905266      -1.57019310       1.28296892       0.00000000
Si      -1.62707031       1.20597381       1.50019841       0.00000000
Si       0.11469137       2.37843841       2.68933163       0.00000000
Si      -3.21583401       1.23558740      -1.12665460       0.00000000
Si       1.91768975       2.98790270       1.02336869       0.00000000
Si       2.72715614      -0.27696258       2.64112807       0.00000000
Si      -2.74402674      -0.51207615       2.70993685       0.00000000
Si       2.71275578      -2.92545594      -0.13754136       0.00000000
