10
Lattice="16.28999089631971 0.0 0.0 0.0 16.28999089631971 0.0 0.0 0.0 34.63643526849801" Properties=species:S:1:pos:R:3:initial_magmoms:R:1 pbc="T T T"
Si       1.08502803      -1.14843785       1.72299044       0.00000000
Si       0.31478796       2.30895894      -0.27923910       0.00000000
Si      -0.08791713      -1.41347615      -1.92135341       0.00000000
Si      -2.44182213       0.11902419       0.21003546       0.00000000
Si      -2.11932900      -2.06023802      -0.83719774       0.00000000
Si      -2.01329739       2.53569945      -0.53987842       0.00000000
Si       3.30105447      -0.30284024       1.55548854       0.00000000
Si       0.72321084      -3.47683271       1.35993112       0.00000000
Si      -0.78921792      -0.16250189      -3.76640271       0.00000000
Si       0.65075292       3.46812276       1.73525174       0.00000000
