10
Lattice="16.28999089631971 0.0 0.0 0.0 16.28999089631971 0.0 0.0 0.0 34.63643526849801" Properties=species:S:1:pos:R:3:initial_magmoms:R:1 pbc="T T T"
Si      -1.15097321       1.13490801      -1.78052159       0.00000000
Si       1.26715023      -1.40127720      -1.67217876       0.00000000
Si      -0.53584326      -1.51599301       1.95675187       0.00000000
Si      -2.22982570       1.34861652       0.36468723       0.00000000
Si       2.67472026      -2.23012869       0.07273655       0.00000000
Si       1.57794714      -2.51721388       2.21053317       0.00000000
Si      -1.95777944      -3.07194281       0.73093310       0.00000000
Si      -2.61733778      -0.22465539      -3.02850768       0.00000000
Si       0.17488944       2.69980686      -3.01860166       0.00000000
Si       2.83015944       2.98809099       0.03844646       0.00000000
