10
Lattice="16.28999089631971 0.0 0.0 0.0 16.28999089631971 0.0 0.0 0.0 34.63643526849801" Properties=species:S:1:pos:R:3:initial_magmoms:R:1 pbc="T T T"
Si      -1.38908088       1.28537874      -1.55510754       0.00000000
Si       2.34250200       0.69574590       0.16951081       0.00000000
Si       1.03477338      -1.66369770      -1.57000122       0.00000000
Si      -0.31941432       0.03111390       2.55381507       0.00000000
Si       0.71803062      -2.15319591       2.19640150       0.00000000
Si       1.44726876      -3.29374026       0.08887714       0.00000000
Si       3.17705499       0.22203270       2.26148340       0.00000000
Si       0.01490535       2.33391717      -3.17505452       0.00000000
Si       1.47919716       1.23711147       3.54642659       0.00000000
Si      -2.65527000      -0.28828413      -3.05704812       0.00000000
