10
Lattice="16.28999089631971 0.0 0.0 0.0 16.28999089631971 0.0 0.0 0.0 34.63643526849801" Properties=species:S:1:pos:R:3:initial_magmoms:R:1 pbc="T T T"
Si      -1.35638685      -1.35687555      -1.35719484       0.00000000
Si      -1.35513252       1.36018242       1.35664065       0.00000000
Si       1.35876519       1.35819504      -1.35729875       0.00000000
Si       1.35840681      -1.35677781       1.36159367       0.00000000
Si      -2.71288773      -2.71531494      -0.00020782       0.00000000
Si      -2.71321353       2.71557558      -0.00051955       0.00000000
Si      -2.71474479       0.00065160      -2.71435504       0.00000000
Si       0.00144981      -2.71430496      -2.71487459       0.00000000
Si       0.00200367       2.71560816      -2.71515168       0.00000000
Si       2.71643895       0.00120546      -2.71497850       0.00000000
