10
Lattice="16.28999089631971 0.0 0.0 0.0 16.28999089631971 0.0 0.0 0.0 34.63643526849801" Properties=species:S:1:pos:R:3:initial_magmoms:R:1 pbc="T T T"
Si      -1.30305339       1.22701167      -1.51738844       0.00000000
Si      -1.40695101      -1.35285192       1.34282071       0.00000000
Si       0.95423562       1.86896799       1.26208313       0.00000000
Si       1.41672501      -1.47290922      -1.48715082       0.00000000
Si       0.36131220      -2.31951681       2.68176214       0.00000000
Si      -2.63990853       2.59695180      -0.09116315       0.00000000
Si       2.70392823       2.59955820      -0.15004512       0.00000000
Si      -0.76041720       3.60763227       0.96524872       0.00000000
Si      -2.66036877      -2.80469817      -0.10910483       0.00000000
Si       0.06468759       2.58660765      -2.88050611       0.00000000
