10
Lattice="16.28999089631971 0.0 0.0 0.0 16.28999089631971 0.0 0.0 0.0 34.63643526849801" Properties=species:S:1:pos:R:3:initial_magmoms:R:1 pbc="T T T"
Si       1.88563266      -1.20078477       0.74793960       0.00000000
Si       0.33174585       2.33753355      -0.08676432       0.00000000
Si       0.13160691      -0.60072633      -2.33733723       0.00000000
Si      -2.07133866      -0.35468217       1.19835206       0.00000000
Si      -3.22867800       1.19596293      -0.10913947       0.00000000
Si       0.96174531      -3.36779460       0.53499468       0.00000000
Si       2.59871112       2.63749761      -0.59602411       0.00000000
Si      -2.45363238       1.69733655      -2.30765379       0.00000000
Si      -2.60960913      -2.61364905       0.79934010       0.00000000
Si       2.39337567      -0.48907467       2.98344566       0.00000000
