10
Lattice="16.28999089631971 0.0 0.0 0.0 16.28999089631971 0.0 0.0 0.0 34.63643526849801" Properties=species:S:1:pos:R:3:initial_magmoms:R:1 pbc="T T T"
Si       2.26696527       0.29996406      -0.50925979       0.00000000
Si      -1.03702140       0.90090216      -1.90649437       0.00000000
Si      -0.33174585      -2.33753355       0.08676432       0.00000000
Si      -0.95902488       1.04291838       1.89644980       0.00000000
Si      -2.78537823      -0.64019700      -2.22088947       0.00000000
Si      -3.31623675       0.83381994       1.30880771       0.00000000
Si       0.61651134       0.76574403      -3.56842074       0.00000000
Si      -0.20013894      -2.93825988      -2.25057291       0.00000000
Si       2.22785298       1.92375126      -2.30491751       0.00000000
Si      -3.56042385      -1.14157062      -0.02237515       0.00000000
