10
Lattice="16.28999089631971 0.0 0.0 0.0 16.28999089631971 0.0 0.0 0.0 34.63643526849801" Properties=species:S:1:pos:R:3:initial_magmoms:R:1 pbc="T T T"
Si       1.19356830      -0.16045650      -2.00455017       0.00000000
Si      -0.87672780       2.16506710       0.13044089       0.00000000
Si       1.58563602      -0.29600559       1.70917049       0.00000000
Si      -0.68592303      -1.17113697      -3.06096204       0.00000000
Si      -1.97350092       1.87798192       2.26823750       0.00000000
Si       0.11495853      -1.53018486       3.20924070       0.00000000
Si      -2.14220016      -2.41728939      -1.52566655       0.00000000
Si       1.81763820       1.90201293       2.81022875       0.00000000
Si       2.90822112      -1.89912078      -1.70771576       0.00000000
Si       3.58647156      -1.49139837       0.62681592       0.00000000
