10
Lattice="16.28999089631971 0.0 0.0 0.0 16.28999089631971 0.0 0.0 0.0 34.63643526849801" Properties=species:S:1:pos:R:3:initial_magmoms:R:1 pbc="T T T"
Si      -0.70130079       1.25097426      -1.84504930       0.00000000
Si       0.73313145      -2.20537278      -0.52165964       0.00000000
Si       0.08791713       1.41347615       1.92135341       0.00000000
Si      -2.03141187      -0.64676187       1.08415567       0.00000000
Si       2.98673892       0.99883764      -0.76300646       0.00000000
Si      -2.35390500       1.53250034       2.13138887       0.00000000
Si       1.77015285      -3.10627494       1.38483473       0.00000000
Si       1.17294516       0.26503830       3.64434385       0.00000000
Si      -1.54608390      -2.27245500       2.69364244       0.00000000
Si      -0.46765332      -0.19945476      -3.82694724       0.00000000
