10
Lattice="16.28999089631971 0.0 0.0 0.0 16.28999089631971 0.0 0.0 0.0 34.63643526849801" Properties=species:S:1:pos:R:3:initial_magmoms:R:1 pbc="T T T"
Si      -1.65353274       0.13515813       1.66192637       0.00000000
Si       1.61134164       1.15800723       1.26350323       0.00000000
Si       0.63405567      -2.26585755       0.15485959       0.00000000
Si      -0.89847495       0.63954540      -2.11729183       0.00000000
Si       1.65045393      -0.46577997       3.05916095       0.00000000
Si      -1.34962650      -1.64232522      -2.97831946       0.00000000
Si       0.60007473       3.33936855       1.42057955       0.00000000
Si      -0.61651134      -0.76574403       3.56842074       0.00000000
Si       2.50149240      -2.26108458       1.63560266       0.00000000
Si       0.32856930      -3.17764143      -2.02664823       0.00000000
