10
Lattice="16.28999089631971 0.0 0.0 0.0 16.28999089631971 0.0 0.0 0.0 34.63643526849801" Properties=species:S:1:pos:R:3:initial_magmoms:R:1 pbc="T T T"
Si       0.82448577      -0.29349693      -2.22407602       0.00000000
Si      -1.69516998       1.69433497       0.05150441       0.00000000
Si       1.87204680      -0.13411557       1.54513224       0.00000000
Si      -0.55983843      -2.27261790       0.73581684       0.00000000
Si      -1.96561656       1.21485348       2.47958915       0.00000000
Si       1.20404277      -3.31929927      -0.43056577       0.00000000
Si       2.98020663      -1.97192079       0.38986793       0.00000000
Si       0.46266858      -2.62189179      -2.58713534       0.00000000
Si       3.04051221       0.55210068      -2.39157792       0.00000000
Si       3.12719130       1.95264713       1.45386518       0.00000000
