10
Lattice="16.28999089631971 0.0 0.0 0.0 16.28999089631971 0.0 0.0 0.0 34.63643526849801" Properties=species:S:1:pos:R:3:initial_magmoms:R:1 pbc="T T T"
Si       1.35746199       1.35560141       1.35740266       0.00000000
Si       1.35682668      -1.35693024      -1.35695238       0.00000000
Si      -1.35708732       1.35806120      -1.35657138       0.00000000
Si      -1.35749457      -1.35862440       1.35726411       0.00000000
Si      -2.71340901      -0.00002531      -2.71497850       0.00000000
Si       2.71435383      -2.71411530       0.00017318       0.00000000
Si      -0.00373041      -2.71162293       2.71712596       0.00000000
Si      -0.00140094      -2.71489722      -2.71387013       0.00000000
Si       2.71568961      -0.00083661       2.71310813       0.00000000
Si      -0.00236205       2.71754804      -2.71161876       0.00000000
