10
Lattice="16.28999089631971 0.0 0.0 0.0 16.28999089631971 0.0 0.0 0.0 34.63643526849801" Properties=species:S:1:pos:R:3:initial_magmoms:R:1 pbc="T T T"
Si       2.18738862      -0.87034279       0.39222321       0.00000000
Si      -1.09002906      -0.74517043      -2.00420381       0.00000000
Si      -0.68779638      -0.63337216       2.23564460       0.00000000
Si      -0.26669988       2.37368758      -0.44244607       0.00000000
Si      -0.07876215      -2.92653175      -2.16128013       0.00000000
Si       3.41005086      -0.24861977      -1.49535966       0.00000000
Si       0.21540267       0.28760484      -3.83196952       0.00000000
Si       2.95114527      -0.08540195       2.47290431       0.00000000
Si      -2.43649530       2.64791344      -1.46924377       0.00000000
Si      -0.18378378       1.22343602       3.71545249       0.00000000
