10
Lattice="16.28999089631971 0.0 0.0 0.0 16.28999089631971 0.0 0.0 0.0 34.63643526849801" Properties=species:S:1:pos:R:3:initial_magmoms:R:1 pbc="T T T"
Si       2.23521606       0.46904937       0.03332027       0.00000000
Si      -0.94205070       2.04219585       0.67887451       0.00000000
Si      -0.76375665      -0.78494084      -2.08068110       0.00000000
Si      -0.28753479      -1.67250149       1.73895784       0.00000000
Si      -2.37040677      -2.36775869       0.73910731       0.00000000
Si       2.21113944       1.40181966       2.27952899       0.00000000
Si      -0.12069261      -3.10035257      -1.82811208       0.00000000
Si       0.09733275       2.31961455       2.76253435       0.00000000
Si      -3.13492905       1.30883797       1.24254817       0.00000000
Si       3.22203168      -1.66000706      -0.43870533       0.00000000
