10
Lattice="16.28999089631971 0.0 0.0 0.0 16.28999089631971 0.0 0.0 0.0 34.63643526849801" Properties=species:S:1:pos:R:3:initial_magmoms:R:1 pbc="T T T"
Si       1.79124840       0.77641724       1.38314243       0.00000000
Si       0.15307713       0.53248426      -2.35562528       0.00000000
Si      -0.89456535      -1.95850339       1.20183791       0.00000000
Si      -1.91014911       1.68181381       0.35219771       0.00000000
Si       1.76884965      -1.10114440      -2.72820962       0.00000000
Si       0.50181345       2.09647576       2.83045440       0.00000000
Si      -2.22830910      -0.65979943       2.79960717       0.00000000
Si      -2.14382916       0.51708532      -2.98853721       0.00000000
Si      -0.85009365       3.44776384       1.49922997       0.00000000
Si      -3.65114286       0.65959676       1.47428826       0.00000000
