10
Lattice="16.28999089631971 0.0 0.0 0.0 16.28999089631971 0.0 0.0 0.0 34.63643526849801" Properties=species:S:1:pos:R:3:initial_magmoms:R:1 pbc="T T T"
Si       1.74935052       1.07893557       1.20870836       0.00000000
Si       1.37828061      -1.32670647      -1.45722492       0.00000000
Si      -1.32361137       1.40890581      -1.43079730       0.00000000
Si      -1.45197657      -1.34140005       1.39778876       0.00000000
Si      -2.37902418       0.56229822       2.73811565       0.00000000
Si       3.44445534      -0.74850921       1.15263194       0.00000000
Si       2.74993119      -2.68301187      -0.10196972       0.00000000
Si      -2.67283062       0.03544704      -2.82176269       0.00000000
Si       0.04416219      -2.67711489      -2.82706206       0.00000000
Si      -2.78184330      -2.76653070       0.03619510       0.00000000
