10
Lattice="16.28999089631971 0.0 0.0 0.0 16.28999089631971 0.0 0.0 0.0 34.63643526849801" Properties=species:S:1:pos:R:3:initial_magmoms:R:1 pbc="T T T"
Si       1.91257632      -1.15833303      -0.70519822       0.00000000
Si      -0.70040484       1.81470600      -1.33665542       0.00000000
Si      -1.61435529      -1.72268379       0.36912070       0.00000000
Si       0.62729532       1.04115906       2.19640150       0.00000000
Si       1.06787466      -1.47675366       2.57906505       0.00000000
Si      -1.10899062       2.72940579       2.10170543       0.00000000
Si      -1.22101695      -2.17235295       2.63427556       0.00000000
Si      -2.38936833       2.74633110       0.11488912       0.00000000
Si       1.18074807       3.27764574      -1.50464223       0.00000000
Si       2.82581001      -2.26129635       1.19035104       0.00000000
