10
Lattice="16.28999089631971 0.0 0.0 0.0 16.28999089631971 0.0 0.0 0.0 34.63643526849801" Properties=species:S:1:pos:R:3:initial_magmoms:R:1 pbc="T T T"
Si       1.35868374      -1.35586557      -1.36183612       0.00000000
Si      -1.35668007       1.36122498      -1.36155903       0.00000000
Si      -1.36594908      -1.33936380       1.39027265       0.00000000
Si       1.35957969       1.36081773       1.37603707       0.00000000
Si       2.71596654      -2.71132389      -0.00270164       0.00000000
Si      -2.71516833      -2.71282257      -0.00069273       0.00000000
Si       2.71433754       2.71867068      -0.00079664       0.00000000
Si       0.00045612      -2.71313208      -2.72003542       0.00000000
Si      -2.71480995       0.00215028      -2.71958514       0.00000000
Si       2.71562445       0.00184077      -2.72013933       0.00000000
