10
Lattice="16.28999089631971 0.0 0.0 0.0 16.28999089631971 0.0 0.0 0.0 34.63643526849801" Properties=species:S:1:pos:R:3:initial_magmoms:R:1 pbc="T T T"
Si       2.18618316      -0.33717042       0.88596587       0.00000000
Si      -0.21317094       2.09851038      -1.14719401       0.00000000
Si      -1.77728787       0.05553261       1.62032798       0.00000000
Si      -0.36802368      -1.79607024      -1.57256431       0.00000000
Si       1.34739477      -1.28078496      -3.16989369       0.00000000
Si      -2.63070468      -1.41949431      -2.15203220       0.00000000
Si      -2.70117522      -2.11147722       1.40738306       0.00000000
Si       2.47177944      -2.76920226       1.09156787       0.00000000
Si      -3.53131362       0.65559105      -1.46494885       0.00000000
Si       2.78213652       0.49223493      -2.66298918       0.00000000
