10
Lattice="16.28999089631971 0.0 0.0 0.0 16.28999089631971 0.0 0.0 0.0 34.63643526849801" Properties=species:S:1:pos:R:3:initial_magmoms:R:1 pbc="T T T"
Si      -1.28037771       0.01692531      -1.98681631       0.00000000
Si      -2.08323036      -0.85976991       0.82763808       0.00000000
Si       1.01338461       2.17919475      -0.03373591       0.00000000
Si       1.73628594      -1.68824673       0.09469607       0.00000000
Si       0.95682573      -2.12323860       2.37453678       0.00000000
Si       0.40858578      -0.91469979      -3.43836085       0.00000000
Si       2.97220824       1.41582906      -1.44589880       0.00000000
Si       1.10899062      -2.72940579      -2.10170543       0.00000000
Si      -1.13510349      -2.97958761       1.77899758       0.00000000
Si       3.70384101      -0.31706856       0.05157368       0.00000000
