10
Lattice="16.28999089631971 0.0 0.0 0.0 16.28999089631971 0.0 0.0 0.0 34.63643526849801" Properties=species:S:1:pos:R:3:initial_magmoms:R:1 pbc="T T T"
Si      -1.35677781      -1.35643572       1.35847639       0.00000000
Si      -1.35752715       1.35718506      -1.35712557       0.00000000
Si       1.35772263      -1.35819504      -1.35684847       0.00000000
Si       1.35728280       1.35936792       1.35667529       0.00000000
Si       0.00210141       2.71192320      -2.71393940       0.00000000
Si       0.00133578       2.71327869       2.71293494       0.00000000
Si       2.71347417       0.00055386      -2.71435504       0.00000000
Si      -2.71435383       2.71411530      -0.00017318       0.00000000
Si       0.00071676      -2.71575477      -2.71400868       0.00000000
Si      -2.71575477      -0.00078192      -2.71404331       0.00000000
