10
Lattice="16.28999089631971 0.0 0.0 0.0 16.28999089631971 0.0 0.0 0.0 34.63643526849801" Properties=species:S:1:pos:R:3:initial_magmoms:R:1 pbc="T T T"
Si       1.27987272      -1.35114147       1.39183129       0.00000000
Si       1.36005210       1.34669430      -1.34264753       0.00000000
Si      -1.35936792      -1.36409202      -1.33862970       0.00000000
Si      -1.16483274       1.51407309       1.37842698       0.00000000
Si      -2.18447271      -0.34306740       2.50712513       0.00000000
Si       2.15984223       0.44616681       2.62592817       0.00000000
Si      -0.46981989      -2.08173168       2.80395955       0.00000000
Si       0.68911587       2.32907808       2.78220785       0.00000000
Si       0.00182448       2.70313232      -2.69835300       0.00000000
Si      -2.71313208      -0.01109349      -2.69849154       0.00000000
