10
Lattice="16.28999089631971 0.0 0.0 0.0 16.28999089631971 0.0 0.0 0.0 34.63643526849801" Properties=species:S:1:pos:R:3:initial_magmoms:R:1 pbc="T T T"
Si      -0.87996951      -1.79730828      -1.23409688       0.00000000
Si       0.27965043      -1.04252742       2.12636659       0.00000000
Si       1.85539842       0.89319699      -1.20479444       0.00000000
Si      -1.47072636       1.88291127       0.15627968       0.00000000
Si      -2.15984223      -0.44616681      -2.62592817       0.00000000
Si       0.55563561       2.26429764      -2.60906022       0.00000000
Si       1.05554313       0.88265736       3.28232362       0.00000000
Si      -0.54354843       2.61579023       2.39220138       0.00000000
Si      -2.62966212      -2.52789849       0.17803138       0.00000000
Si      -3.32467497       1.06790628      -1.24750119       0.00000000
