10
Lattice="16.28999089631971 0.0 0.0 0.0 16.28999089631971 0.0 0.0 0.0 34.63643526849801" Properties=species:S:1:pos:R:3:initial_magmoms:R:1 pbc="T T T"
Si       0.77589270       1.92518478       1.15595704       0.00000000
Si      -0.27965043       1.04252742      -2.12636659       0.00000000
Si       1.69440435      -1.76173092      -0.33853671       0.00000000
Si      -2.23106211      -1.07764866       0.38619647       0.00000000
Si      -1.33911945      -3.01321017       1.52254927       0.00000000
Si      -1.15961994      -0.75478086      -3.36046346       0.00000000
Si      -0.82319886       3.65831765       0.26583479       0.00000000
Si       0.49508568      -3.75521967       0.07564602       0.00000000
Si      -2.90931255      -1.48537107      -1.94833521       0.00000000
Si      -1.75037679       2.92543869      -1.97008690       0.00000000
