10
Lattice="16.28999089631971 0.0 0.0 0.0 16.28999089631971 0.0 0.0 0.0 34.63643526849801" Properties=species:S:1:pos:R:3:initial_magmoms:R:1 pbc="T T T"
Si       0.76779657       1.93269447       1.31821640       0.00000000
Si      -1.92753054      -0.74362221       1.38966448       0.00000000
Si       1.80965610      -1.72657710       0.22963080       0.00000000
Si       0.47946357      -0.94188780      -2.33477413       0.00000000
Si       2.15549280       0.55874700       2.90264370       0.00000000
Si      -0.58411053      -2.16771030       2.90538690       0.00000000
Si       0.85121766      -3.48285087       1.55710402       0.00000000
Si      -0.53392104      -3.12108255      -2.30103823       0.00000000
Si       3.54812490      -0.80620839       1.49664609       0.00000000
Si      -3.31736076      -2.16683064      -0.02254833       0.00000000
