10
Lattice="16.28999089631971 0.0 0.0 0.0 16.28999089631971 0.0 0.0 0.0 34.63643526849801" Properties=species:S:1:pos:R:3:initial_magmoms:R:1 pbc="T T T"
Si       1.33514469       1.36423863       1.39060170       0.00000000
Si      -1.37251232      -1.36423863       1.38582187       0.00000000
Si      -1.42976190       1.30181535      -1.41860181       0.00000000
Si       1.83397707      -0.86407047      -1.38567293       0.00000000
Si       2.69459406       2.69377956       0.00577390       0.00000000
Si       2.70304857      -2.69107542       0.01586696       0.00000000
Si      -2.72219828       2.69578323       0.03493086       0.00000000
Si      -2.72648372      -2.69601129       0.01047406       0.00000000
Si       2.70032814      -0.00322542       2.74125025       0.00000000
Si      -0.01470987      -2.71487511       2.74516417       0.00000000
