10
Lattice="16.28999089631971 0.0 0.0 0.0 16.28999089631971 0.0 0.0 0.0 34.63643526849801" Properties=species:S:1:pos:R:3:initial_magmoms:R:1 pbc="T T T"
Si      -0.60575994       0.16685847       2.23273514       0.00000000
Si       1.46489847      -1.80339422       0.03785764       0.00000000
Si      -2.14840665      -0.30582846      -0.87747994       0.00000000
Si       0.78425519       2.05583058      -0.89344735       0.00000000
Si      -1.14464943       2.48433903       2.21707946       0.00000000
Si       3.12594416       1.64858058      -0.75202670       0.00000000
Si       0.57932127       3.46211370       0.96691127       0.00000000
Si       0.03477915      -3.64960250       0.62996784       0.00000000
Si       3.56453612       0.14906979       1.04058301       0.00000000
Si      -1.91721897      -0.49003578      -3.21021052       0.00000000
