10
Lattice="16.28999089631971 0.0 0.0 0.0 16.28999089631971 0.0 0.0 0.0 34.63643526849801" Properties=species:S:1:pos:R:3:initial_magmoms:R:1 pbc="T T T"
Si      -2.23521606      -0.46904937      -0.03332027       0.00000000
Si       0.93118527       1.83930879      -1.17379481       0.00000000
Si       0.98681562      -2.12905643      -0.47202560       0.00000000
Si      -0.02407662       0.93277029       2.24620872       0.00000000
Si       2.67412797       1.69813965       0.40181751       0.00000000
Si      -3.17726676       1.57314648       0.64555424       0.00000000
Si       1.31714424       2.85354048       1.97019081       0.00000000
Si      -2.52275085      -2.14155086       1.70563757       0.00000000
Si       1.57172436      -1.97715218      -2.77656211       0.00000000
Si       2.69529194      -2.38388090       1.12772833       0.00000000
