10
Lattice="16.28999089631971 0.0 0.0 0.0 16.28999089631971 0.0 0.0 0.0 34.63643526849801" Properties=species:S:1:pos:R:3:initial_magmoms:R:1 pbc="T T T"
Si       0.30913533       0.84400119       2.12837550       0.00000000
Si      -2.08231812       0.53621793      -0.86719291       0.00000000
Si       1.72397070       0.97777467      -1.25016819       0.00000000
Si       0.53888949      -2.31748056       0.01565568       0.00000000
Si       1.14464943      -2.48433903      -2.21707946       0.00000000
Si       0.92484846      -1.30324887       3.15964130       0.00000000
Si       3.47636975       0.92655891       0.32572122       0.00000000
Si      -3.56909013      -0.41176233       0.72102708       0.00000000
Si       1.92890462      -0.42850845      -3.11052681       0.00000000
Si      -2.22254244      -0.75385233      -2.84981821       0.00000000
