10
Lattice="16.28999089631971 0.0 0.0 0.0 16.28999089631971 0.0 0.0 0.0 34.63643526849801" Properties=species:S:1:pos:R:3:initial_magmoms:R:1 pbc="T T T"
Si       1.35728280      -1.35545832       1.35913448       0.00000000
Si       1.35694071       1.35770634      -1.35830320       0.00000000
Si      -1.35822762      -1.35726651      -1.35819930       0.00000000
Si      -1.35868374       1.35586557       1.36183612       0.00000000
Si       2.71360449       0.00534312       2.70981766       0.00000000
Si       2.71440270      -2.71396287      -0.00121228       0.00000000
Si       2.71467963       2.71379997      -0.00031173       0.00000000
Si       2.71463076      -0.00009774      -2.71477068       0.00000000
Si      -0.00065160      -2.71384884      -2.71560195       0.00000000
Si      -0.00086337       2.71533123      -2.71504777       0.00000000
