10
Lattice="16.28999089631971 0.0 0.0 0.0 16.28999089631971 0.0 0.0 0.0 34.63643526849801" Properties=species:S:1:pos:R:3:initial_magmoms:R:1 pbc="T T T"
Si       1.19931867       1.99348875      -0.41418272       0.00000000
Si       1.60915878      -1.50532632       0.99569416       0.00000000
Si      -1.83420513       0.74200950       1.44690326       0.00000000
Si       0.13105305      -1.40199885      -2.13370951       0.00000000
Si       1.21378419       0.28691577      -3.40652995       0.00000000
Si       2.72596860       1.96566543       1.43578495       0.00000000
Si      -3.01122279      -1.31655780       1.62974910       0.00000000
Si       2.90092320       1.23255027      -2.03970618       0.00000000
Si      -0.49508568       3.75521967      -0.07564602       0.00000000
Si      -2.72614779       2.67757101       0.31055045       0.00000000
