10
Lattice="16.28999089631971 0.0 0.0 0.0 16.28999089631971 0.0 0.0 0.0 34.63643526849801" Properties=species:S:1:pos:R:3:initial_magmoms:R:1 pbc="T T T"
Si       1.08273114       1.68891462      -1.27282043       0.00000000
Si      -1.74935052      -1.07893557      -1.20870836       0.00000000
Si       1.69510482      -1.82744478      -0.05607642       0.00000000
Si      -0.13105305       1.40199885       2.13370951       0.00000000
Si       1.47810573      -0.10332747       3.12940368       0.00000000
Si       2.36527542       0.31881159      -2.68179677       0.00000000
Si      -0.37106991      -2.40564204      -2.66593328       0.00000000
Si       1.70569332      -2.27353014       2.24648581       0.00000000
Si       2.76987015       2.63454912       0.09400334       0.00000000
Si       1.06826562       3.39548760       1.71952679       0.00000000
