10
Lattice="16.28999089631971 0.0 0.0 0.0 16.28999089631971 0.0 0.0 0.0 34.63643526849801" Properties=species:S:1:pos:R:3:initial_magmoms:R:1 pbc="T T T"
Si      -1.34307792      -1.34674317       1.38168628       0.00000000
Si       1.37661903       1.36604586       1.37500144       0.00000000
Si       1.29371922      -1.47660705      -1.37579115       0.00000000
Si      -1.39637880       1.41907959      -1.41438655       0.00000000
Si       0.62211510       2.01201767      -2.54947166       0.00000000
Si       2.41067565       0.24144291      -2.58552960       0.00000000
Si      -2.69449632      -2.68978851      -0.01126378       0.00000000
Si      -2.68581375       2.73913811       0.03292541       0.00000000
Si      -2.69501760       0.00571437       2.73676829       0.00000000
Si       2.72503844      -2.70700704       0.03177895       0.00000000
