10
Lattice="16.28999089631971 0.0 0.0 0.0 16.28999089631971 0.0 0.0 0.0 34.63643526849801" Properties=species:S:1:pos:R:3:initial_magmoms:R:1 pbc="T T T"
Si       0.61499637       0.19038123      -2.31731736       0.00000000
Si      -1.33035543       1.98506682      -0.32468213       0.00000000
Si      -1.67532876      -1.60339212       0.66976512       0.00000000
Si       1.62891855       0.03282435       2.13502570       0.00000000
Si      -0.68240439       2.89191483       1.80487101       0.00000000
Si      -2.35779831      -2.47098123      -1.49068373       0.00000000
Si       1.27387800      -1.99370052      -2.88123348       0.00000000
Si       2.17921104       1.99756125      -2.50234530       0.00000000
Si      -3.41322741       1.28980962      -1.32453266       0.00000000
Si       3.12525279       1.86673626       1.54946180       0.00000000
