10
Lattice="16.28999089631971 0.0 0.0 0.0 16.28999089631971 0.0 0.0 0.0 34.63643526849801" Properties=species:S:1:pos:R:3:initial_magmoms:R:1 pbc="T T T"
Si       0.13406670      -2.22746202      -0.41404418       0.00000000
Si       1.26096003       0.77501304       1.76995747       0.00000000
Si      -2.22528472       0.47421819      -0.40739398       0.00000000
Si      -0.61874863       0.74492541       3.34667816       0.00000000
Si       1.82381374       2.98279674       0.95035504       0.00000000
Si      -2.23587322       0.92030355      -2.70995621       0.00000000
Si      -2.45287231       2.64442086       0.47552389       0.00000000
Si       1.21291919      -2.44117053      -2.55925300       0.00000000
Si      -1.72268935      -3.40682544       0.61296134       0.00000000
Si      -0.47176396       3.85409997       0.90889521       0.00000000
