10
Lattice="16.28999089631971 0.0 0.0 0.0 16.28999089631971 0.0 0.0 0.0 34.63643526849801" Properties=species:S:1:pos:R:3:initial_magmoms:R:1 pbc="T T T"
Si       1.35840168      -1.35374594      -1.35809539       0.00000000
Si      -1.35692534      -1.35767183       1.35767975       0.00000000
Si       1.35820294       1.35754604       1.35740266       0.00000000
Si      -1.35624116       1.35809827      -1.36097021       0.00000000
Si      -0.00782174      -2.71495463      -2.70419270       0.00000000
Si       2.70600333       0.00407135      -2.71813388       0.00000000
Si      -2.71468055       0.00048106       2.71442431       0.00000000
Si       0.00026871       2.71486794       2.71504777       0.00000000
Si       0.00056797      -2.71484060       2.71518631       0.00000000
Si      -2.71650503      -2.71360256       0.00038100       0.00000000
