10
Lattice="16.28999089631971 0.0 0.0 0.0 16.28999089631971 0.0 0.0 0.0 34.63643526849801" Properties=species:S:1:pos:R:3:initial_magmoms:R:1 pbc="T T T"
Si       0.00724905      -1.76479344      -1.57509277       0.00000000
Si       1.72507842       1.42110702      -0.88191341       0.00000000
Si      -2.12712051       1.13199210       0.09518098       0.00000000
Si       0.79149852      -0.95752620       2.57819914       0.00000000
Si       1.58596182       0.97990866      -3.22434220       0.00000000
Si       1.75524750      -1.36353816      -3.03917571       0.00000000
Si      -1.53738504      -1.24150977      -3.31076015       0.00000000
Si       1.28993994       3.66409341      -0.25243048       0.00000000
Si       3.93440967       0.57458088      -0.53496004       0.00000000
Si      -0.33013314      -3.99226686      -0.77585658       0.00000000
