10
Lattice="16.28999089631971 0.0 0.0 0.0 16.28999089631971 0.0 0.0 0.0 34.63643526849801" Properties=species:S:1:pos:R:3:initial_magmoms:R:1 pbc="T T T"
Si       1.35307998       1.34200278      -1.38074763       0.00000000
Si      -1.36005323      -1.37217186      -1.38126717       0.00000000
Si       1.38680028      -1.35863487       1.39803122       0.00000000
Si      -1.38167612       1.37481084       1.53588431       0.00000000
Si      -0.39393292      -2.30081589       2.62343435       0.00000000
Si      -2.31243785      -0.40858578       2.74538930       0.00000000
Si      -2.71763531       2.69094510       0.00013855       0.00000000
Si       2.70892926       2.70500337       0.00381001       0.00000000
Si       2.71002069      -2.72743470      -0.02157851       0.00000000
Si      -0.00093342       2.69993718      -2.74029774       0.00000000
