10
Lattice="16.28999089631971 0.0 0.0 0.0 16.28999089631971 0.0 0.0 0.0 34.63643526849801" Properties=species:S:1:pos:R:3:initial_magmoms:R:1 pbc="T T T"
Si      -1.39522547       0.86154552      -1.61925425       0.00000000
Si      -0.69620202      -0.63737883       2.11524828       0.00000000
Si       1.70748522       1.50102576       0.66761766       0.00000000
Si       0.50865525      -2.16775917      -0.90969184       0.00000000
Si       1.18648215       0.67655628       2.94846284       0.00000000
Si      -1.89579599      -2.67752214      -0.87844976       0.00000000
Si       0.37278036       0.94265343      -3.24297661       0.00000000
Si       3.47136642       0.45434439      -0.49876495       0.00000000
Si      -2.76989116      -1.01589327      -2.29494221       0.00000000
Si       2.19222675      -3.16565199       0.50673133       0.00000000
