10
Lattice="16.28999089631971 0.0 0.0 0.0 16.28999089631971 0.0 0.0 0.0 34.63643526849801" Properties=species:S:1:pos:R:3:initial_magmoms:R:1 pbc="T T T"
Si      -1.33140192       1.29220425       1.41611837       0.00000000
Si      -1.07684882      -1.75244562      -1.12192222       0.00000000
Si       1.39118718      -1.40843340       1.39310245       0.00000000
Si       1.32035826       1.46448729      -1.41841966       0.00000000
Si      -2.76272114       2.52260424       0.00854828       0.00000000
Si      -1.55198318      -1.09242369      -3.31085163       0.00000000
Si       0.03482150       2.65341294       2.76221569       0.00000000
Si      -2.67848555      -0.06553467       2.75878668       0.00000000
Si       2.70846174       2.75771781      -0.06026050       0.00000000
Si       2.71488000      -2.77179237      -0.04144598       0.00000000
