10
Lattice="16.28999089631971 0.0 0.0 0.0 16.28999089631971 0.0 0.0 0.0 34.49183129400761" Properties=species:S:1:pos:R:3:initial_magmoms:R:1 pbc="T T T"
Si      -0.72105567      -1.90304245      -1.11088593       0.00000000
Si       1.45616962      -1.23727347       1.41164797       0.00000000
Si       1.45959052       0.98215179      -1.59703274       0.00000000
Si      -1.28725276       1.48059321       1.41003720       0.00000000
Si       0.04747232       2.23131786      -3.00788739       0.00000000
Si       2.68645558       2.66653779      -0.08167325       0.00000000
Si       0.08407921      -2.59500907       2.79158758       0.00000000
Si      -2.71583689      -2.69077798      -0.13341103       0.00000000
Si      -2.63453350       0.12152014       2.79517473       0.00000000
Si       2.99117632      -2.51934202      -0.16502971       0.00000000
