10
Lattice="16.28999089631971 0.0 0.0 0.0 16.28999089631971 0.0 0.0 0.0 34.49183129400761" Properties=species:S:1:pos:R:3:initial_magmoms:R:1 pbc="T T T"
Si      -1.35631517       1.35511623      -1.35884095       0.00000000
Si       1.35835794      -1.35902420      -1.35825458       0.00000000
Si       1.35829278       1.36353816       1.36125537       0.00000000
Si      -1.37417064      -1.35852573       1.35697839       0.00000000
Si      -0.00446346      -2.68113363       2.71547441       0.00000000
Si      -2.71309318       2.71028133       0.00196604       0.00000000
Si       2.71844262       2.70617625      -0.00003449       0.00000000
Si       0.00057015       2.71199178      -2.71550890       0.00000000
Si       2.71239903      -2.71703650       0.00179358       0.00000000
Si      -2.71444106      -0.00324171      -2.71550890       0.00000000
