10
Lattice="16.28999089631971 0.0 0.0 0.0 16.28999089631971 0.0 0.0 0.0 34.49183129400761" Properties=species:S:1:pos:R:3:initial_magmoms:R:1 pbc="T T T"
Si       1.36970718      -1.32260791       1.35849603       0.00000000
Si      -1.34045101      -1.35922361      -1.36077249       0.00000000
Si       1.37417064       1.35852573      -1.35697839       0.00000000
Si      -1.40331412       1.31859894       1.44213876       0.00000000
Si       2.17945050       0.49948887       2.64442120       0.00000000
Si       0.26001283       2.42519493       2.83002185       0.00000000
Si      -0.19469971      -2.52016304       2.77424853       0.00000000
Si      -2.69255359      -2.71544756       0.01062349       0.00000000
Si      -2.69597449      -0.00182611      -2.71571585       0.00000000
Si      -2.69574643       2.71916427       0.01421064       0.00000000
