10
Lattice="16.28999089631971 0.0 0.0 0.0 16.28999089631971 0.0 0.0 0.0 34.49183129400761" Properties=species:S:1:pos:R:3:initial_magmoms:R:1 pbc="T T T"
Si       1.36187658       1.34819388       1.37425880       0.00000000
Si       1.45780839      -1.29401710      -1.32842948       0.00000000
Si      -1.35576783      -1.36790854       1.36515295       0.00000000
Si      -1.22284143       1.35241624      -1.53262124       0.00000000
Si      -2.26888749      -0.20548672      -3.02212218       0.00000000
Si       2.70109377       2.69467803       0.02688295       0.00000000
Si      -2.70847314       2.69772426      -0.02493071       0.00000000
Si      -2.70414000      -2.72362750      -0.02910767       0.00000000
Si       0.00371412       2.70518508       2.72589095       0.00000000
Si      -2.71228500      -0.00707181       2.72595993       0.00000000
