10
Lattice="16.28999089631971 0.0 0.0 0.0 16.28999089631971 0.0 0.0 0.0 34.49183129400761" Properties=species:S:1:pos:R:3:initial_magmoms:R:1 pbc="T T T"
Si      -1.35355239       1.35019665       1.35828908       0.00000000
Si       1.35812988       1.35594702      -1.35708186       0.00000000
Si      -1.35661491      -1.35856971      -1.35739229       0.00000000
Si       1.35482301      -1.35798327       1.36142783       0.00000000
Si      -2.71184517       2.71518462       0.00124171       0.00000000
Si       0.00045612       2.71360449      -2.71457762       0.00000000
Si      -2.71363707      -2.71500380       0.00006898       0.00000000
Si      -2.71430496      -0.00114030      -2.71433618       0.00000000
Si       2.71459818       2.71484253       0.00072433       0.00000000
Si       2.71562445      -0.00161271      -2.71478457       0.00000000
