10
Lattice="16.28999089631971 0.0 0.0 0.0 16.28999089631971 0.0 0.0 0.0 34.49183129400761" Properties=species:S:1:pos:R:3:initial_magmoms:R:1 pbc="T T T"
Si       1.35024552       1.35743593      -1.38619298       0.00000000
Si      -1.36417347      -1.35759691      -1.38750367       0.00000000
Si       1.55434293      -1.31824349       1.38850394       0.00000000
Si      -1.40072823       1.44431050       1.43334334       0.00000000
Si      -2.70076797      -2.71303501      -0.01327936       0.00000000
Si       2.72100015       2.70474925      -0.01390022       0.00000000
Si       2.71324611      -2.71815007      -0.04866800       0.00000000
Si      -2.71827972       2.72297776      -0.02804187       0.00000000
Si       2.71070487      -0.00196457      -2.74727590       0.00000000
Si      -0.00343719      -2.71557625      -2.74699996       0.00000000
