10
Lattice="16.28999089631971 0.0 0.0 0.0 16.28999089631971 0.0 0.0 0.0 34.49183129400761" Properties=species:S:1:pos:R:3:initial_magmoms:R:1 pbc="T T T"
Si      -0.46669221       1.32599134       1.90553678       0.00000000
Si      -1.40326947       0.45302653      -1.88835983       0.00000000
Si       1.95914943      -1.41465766       0.49678612       0.00000000
Si      -1.73498274      -1.85426368       0.93207328       0.00000000
Si       1.76896368       2.24460073       0.41642011       0.00000000
Si       0.25402626      -2.63385421       1.78567760       0.00000000
Si       3.34353879       0.53555167      -0.11058087       0.00000000
Si       0.46729494       1.39693429      -3.06711883       0.00000000
Si       1.33965702       3.20815423      -1.77219128       0.00000000
Si       0.39713391       0.62535844       3.95462864       0.00000000
