10
Lattice="16.28999089631971 0.0 0.0 0.0 16.28999089631971 0.0 0.0 0.0 34.49183129400761" Properties=species:S:1:pos:R:3:initial_magmoms:R:1 pbc="T T T"
Si      -2.24736840      -0.45006012       0.32036031       0.00000000
Si       0.77970456      -0.08296497       2.21185890       0.00000000
Si       0.46511208       2.13294744      -0.94452484       0.00000000
Si       0.99958698      -1.75280889      -1.28354524       0.00000000
Si      -2.49572574       0.86193648       2.29646741       0.00000000
Si      -0.87553863       1.16918217      -3.21784822       0.00000000
Si      -3.11119452       0.25057278      -1.72873155       0.00000000
Si       2.32901388      -1.82649670       2.03581250       0.00000000
Si       2.80603395       1.82812896      -1.33880118       0.00000000
Si       2.67920001      -0.48479040      -2.38014464       0.00000000
