10
Lattice="16.28999089631971 0.0 0.0 0.0 16.28999089631971 0.0 0.0 0.0 34.49183129400761" Properties=species:S:1:pos:R:3:initial_magmoms:R:1 pbc="T T T"
Si       0.76445712      -1.08274906      -1.92802546       0.00000000
Si      -1.07637804      -1.86327789       0.96553037       0.00000000
Si       1.81371231       1.29349116       0.91641398       0.00000000
Si      -1.76480973       1.61697798      -0.27462411       0.00000000
Si      -2.30736447      -0.35538264       2.37838556       0.00000000
Si       0.66593520       2.50457121      -2.10827987       0.00000000
Si      -0.47250774       3.35308473       0.54366055       0.00000000
Si       0.38327112       0.58979574      -3.56066272       0.00000000
Si       0.44264817       2.57761557       2.52307887       0.00000000
Si       3.12238575      -1.18294396      -1.51301952       0.00000000
