10
Lattice="16.28999089631971 0.0 0.0 0.0 16.28999089631971 0.0 0.0 0.0 34.49183129400761" Properties=species:S:1:pos:R:3:initial_magmoms:R:1 pbc="T T T"
Si      -1.35537687      -1.35738054      -1.35711635       0.00000000
Si      -1.35711990       1.35715248       1.35715084       0.00000000
Si       1.35769005      -1.35742941       1.35694389       0.00000000
Si       1.35806472       1.35725022      -1.35811662       0.00000000
Si      -2.71400522       0.00027693       2.71381880       0.00000000
Si       0.00066789      -2.71386350       2.71440516       0.00000000
Si       2.71430496       0.00114030       2.71433618       0.00000000
Si      -2.71478226       2.71469592      -0.00024144       0.00000000
Si       2.71476108       2.71474479      -0.00024144       0.00000000
Si      -2.71436198      -2.71517159      -0.00055187       0.00000000
