10
Lattice="16.28999089631971 0.0 0.0 0.0 16.28999089631971 0.0 0.0 0.0 34.49183129400761" Properties=species:S:1:pos:R:3:initial_magmoms:R:1 pbc="T T T"
Si       1.36014984       1.34263809      -1.36128987       0.00000000
Si       1.31755149      -1.27866726       1.46138522       0.00000000
Si      -1.35829278      -1.36353816      -1.36125537       0.00000000
Si      -1.26368046       1.37714031       1.48132151       0.00000000
Si      -0.55301292      -2.22257502       2.64014421       0.00000000
Si       2.18991357       0.53255268       2.75631276       0.00000000
Si       0.50182974       2.22829281       2.99472043       0.00000000
Si      -2.47245059      -0.29686896       2.82574486       0.00000000
Si      -2.69965048       2.70457983       0.01407268       0.00000000
Si       0.00185706       2.70762606      -2.71833724       0.00000000
