10
Lattice="16.28999089631971 0.0 0.0 0.0 16.28999089631971 0.0 0.0 0.0 34.49183129400761" Properties=species:S:1:pos:R:3:initial_magmoms:R:1 pbc="T T T"
Si      -2.20140195       0.33603012       0.99988426       0.00000000
Si       1.52034896       0.06724512       2.02070507       0.00000000
Si      -0.66010731      -2.24699699      -1.02199353       0.00000000
Si       0.96280416       1.04407497      -2.40998009       0.00000000
Si      -0.48779297       2.62448190      -0.98760516       0.00000000
Si       1.13078990      -2.25486180       1.92340356       0.00000000
Si      -2.31207621      -1.12498740      -2.37314279       0.00000000
Si      -2.97571452       1.72480149      -0.78734547       0.00000000
Si      -0.97080648      -3.14023049       1.33055763       0.00000000
Si      -2.92725177      -1.85582196       1.45500422       0.00000000
