10
Lattice="16.28999089631971 0.0 0.0 0.0 16.28999089631971 0.0 0.0 0.0 34.49183129400761" Properties=species:S:1:pos:R:3:initial_magmoms:R:1 pbc="T T T"
Si      -0.91515591       0.77546916      -1.97941832       0.00000000
Si      -1.52314758      -1.24861221       1.37066617       0.00000000
Si       1.18324044       1.58019516       1.38967118       0.00000000
Si       1.37106414      -1.28412441      -1.60666489       0.00000000
Si      -0.44264817      -2.57761557      -2.52307887       0.00000000
Si      -2.20745790      -0.96063759      -2.79770298       0.00000000
Si      -0.05453892      -2.44437966       2.85542996       0.00000000
Si       2.37581505       2.90369250      -0.25282526       0.00000000
Si       2.63868678       0.28888686       2.87272073       0.00000000
Si       3.02028003      -2.48906313      -0.21236632       0.00000000
