10
Lattice="16.28999089631971 0.0 0.0 0.0 16.28999089631971 0.0 0.0 0.0 34.49183129400761" Properties=species:S:1:pos:R:3:initial_magmoms:R:1 pbc="T T T"
Si      -0.38955906      -2.32210692      -0.09730151       0.00000000
Si       2.29847013      -0.07591140      -0.82238919       0.00000000
Si      -0.57053119       1.03575078       2.21316959       0.00000000
Si      -1.52034896      -0.06724512      -2.02070507       0.00000000
Si       3.16229625      -0.77654430       1.22670267       0.00000000
Si       0.48141837      -3.29226506       1.84810785       0.00000000
Si       0.68530401       3.78620325       0.02914561       0.00000000
Si       1.03017960      -3.25616642      -1.79585269       0.00000000
Si      -3.72175091       0.26878500      -1.02082081       0.00000000
Si       0.72490500       0.07973955       3.94966181       0.00000000
