10
Lattice="16.28999089631971 0.0 0.0 0.0 16.28999089631971 0.0 0.0 0.0 34.49183129400761" Properties=species:S:1:pos:R:3:initial_magmoms:R:1 pbc="T T T"
Si       0.87097743      -0.97015814       1.94540936       0.00000000
Si      -2.10159638      -0.88536869      -0.59284593       0.00000000
Si       0.38955906       2.32210692       0.09730151       0.00000000
Si       1.41973866      -0.93405950      -1.69855118       0.00000000
Si      -1.13078990       2.25486180      -1.92340356       0.00000000
Si      -1.79089721       0.00786481      -2.94539709       0.00000000
Si       3.13935993      -0.82731113       1.33283409       0.00000000
Si       2.68802919       2.24619552      -0.72508768       0.00000000
Si      -0.20087036      -3.06021401       1.99666425       0.00000000
Si      -2.41521146      -2.62189898       1.02940928       0.00000000
