10
Lattice="16.28999089631971 0.0 0.0 0.0 16.28999089631971 0.0 0.0 0.0 34.49183129400761" Properties=species:S:1:pos:R:3:initial_magmoms:R:1 pbc="T T T"
Si      -0.51601833       0.32886252       2.21803294       0.00000000
Si      -1.69404597      -1.15222428      -1.09601304       0.00000000
Si       1.12148505       1.73177361      -1.16558311       0.00000000
Si      -0.22188609      -2.34113364      -2.52207861       0.00000000
Si       2.47085091       0.36579195      -2.53063258       0.00000000
Si      -2.07080109       2.08806849       2.15187757       0.00000000
Si      -2.45304594      -2.81110014       0.45736194       0.00000000
Si       1.39427739       0.43833132       3.48502209       0.00000000
Si      -2.94555780       0.37170522      -2.53039114       0.00000000
Si       2.91760416       2.70578529       0.04087284       0.00000000
