10
Lattice="16.28999089631971 0.0 0.0 0.0 16.28999089631971 0.0 0.0 0.0 34.49183129400761" Properties=species:S:1:pos:R:3:initial_magmoms:R:1 pbc="T T T"
Si       0.93586050       1.50061136      -1.64629603       0.00000000
Si      -0.52735617       1.45157339       1.96244833       0.00000000
Si      -1.82193876      -1.10615616      -1.55120200       0.00000000
Si       2.02342977      -1.43552367       1.29610027       0.00000000
Si       2.35973682       2.83151218      -0.32291271       0.00000000
Si       2.09476368       0.10070478      -3.08346797       0.00000000
Si       0.85703319       3.40178273       1.35508133       0.00000000
Si      -2.23247934       0.23237685       3.25133980       0.00000000
Si       2.53571769      -3.00298005      -0.48461050       0.00000000
Si      -0.62926641      -2.59949304      -3.04738949       0.00000000
