10
Lattice="16.28999089631971 0.0 0.0 0.0 16.28999089631971 0.0 0.0 0.0 34.49183129400761" Properties=species:S:1:pos:R:3:initial_magmoms:R:1 pbc="T T T"
Si       0.09878256      -1.43171181      -1.94102889       0.00000000
Si       1.99884816       1.24015770      -0.73695288       0.00000000
Si      -2.21467437       1.17045279      -0.00731227       0.00000000
Si       0.42725412      -1.41822369       2.21427333       0.00000000
Si       1.11604419      -3.34381572       0.83039130       0.00000000
Si       1.28330991       2.06508330      -2.84488783       0.00000000
Si      -2.15241399      -2.02582440      -2.32830339       0.00000000
Si       0.48803211       0.00431685      -3.80986634       0.00000000
Si      -3.59055709      -0.30911904      -1.40881964       0.00000000
Si       2.78348859       2.45770488       1.08932162       0.00000000
