10
Lattice="16.28999089631971 0.0 0.0 0.0 16.28999089631971 0.0 0.0 0.0 34.49183129400761" Properties=species:S:1:pos:R:3:initial_magmoms:R:1 pbc="T T T"
Si       1.58065128      -0.14827158      -1.71321022       0.00000000
Si       0.21712941      -2.08879014       1.04230923       0.00000000
Si      -2.17324890      -0.12197952      -0.87323018       0.00000000
Si       0.49930479       1.78189794       1.47373330       0.00000000
Si      -3.44634498      -0.32558823       1.09277081       0.00000000
Si       0.39149757       0.83331495      -3.57080332       0.00000000
Si       2.41282593      -2.40464020      -1.46369617       0.00000000
Si       2.52293004      -2.58287072       0.93279761       0.00000000
Si      -0.02321325       3.76908246       0.41238457       0.00000000
Si      -2.91613806       2.01036519      -1.40826777       0.00000000
