10
Lattice="16.28999089631971 0.0 0.0 0.0 16.28999089631971 0.0 0.0 0.0 34.49183129400761" Properties=species:S:1:pos:R:3:initial_magmoms:R:1 pbc="T T T"
Si       1.35759231       1.35749457      -1.35687491       0.00000000
Si       1.35785295      -1.35713619       1.35739229       0.00000000
Si      -1.35749457       1.35755973       1.35770271       0.00000000
Si      -1.35703845      -1.35899325      -1.35749576       0.00000000
Si       0.00112401      -2.71598446      -2.70912791       0.00000000
Si       2.71467963      -2.71479855       0.00006898       0.00000000
Si      -2.71495656      -2.71463402      -0.00003449       0.00000000
Si      -2.71516833       2.71521720       0.00020695       0.00000000
Si      -2.71562445       0.00161271       2.71478457       0.00000000
Si       2.71557558       2.71526607       0.00003449       0.00000000
