10
Lattice="16.28999089631971 0.0 0.0 0.0 16.28999089631971 0.0 0.0 0.0 34.49183129400761" Properties=species:S:1:pos:R:3:initial_magmoms:R:1 pbc="T T T"
Si       1.36420605       1.34930070       1.34024984       0.00000000
Si       1.35296595      -1.35283563      -1.35753025       0.00000000
Si      -1.36080144       1.36085031      -1.35649550       0.00000000
Si      -1.36650294      -1.37051028       1.36949893       0.00000000
Si      -0.04965192       2.64800466       2.61517211       0.00000000
Si       2.70666495      -2.71134018       0.00117272       0.00000000
Si       2.70962973       0.00298107      -2.71409474       0.00000000
Si      -0.00509877      -2.71215468      -2.71399126       0.00000000
Si       2.70845685       2.71783989       0.00089679       0.00000000
Si      -0.00508248       2.71787247      -2.71419821       0.00000000
