10
Lattice="16.28999089631971 0.0 0.0 0.0 16.28999089631971 0.0 0.0 0.0 34.49183129400761" Properties=species:S:1:pos:R:3:initial_magmoms:R:1 pbc="T T T"
Si       0.70232706      -1.88946081      -1.28551127       0.00000000
Si      -0.87221547      -0.87881292       2.04702235       0.00000000
Si      -1.83210372       1.35044100      -0.80807508       0.00000000
Si       1.72079415       1.69837911       0.21829892       0.00000000
Si      -1.48465431       1.03171086       3.20891483       0.00000000
Si       0.47003166       3.56097771       0.99564176       0.00000000
Si       3.11867163      -1.70305434      -1.21535485       0.00000000
Si      -3.08113947      -1.67809806       1.48252872       0.00000000
Si       2.60517825       1.95605433      -2.07185648       0.00000000
Si       0.11953602      -3.89933730      -0.00648447       0.00000000
