10
Lattice="16.28999089631971 0.0 0.0 0.0 16.28999089631971 0.0 0.0 0.0 34.49183129400761" Properties=species:S:1:pos:R:3:initial_magmoms:R:1 pbc="T T T"
Si       1.76606406      -0.09780516       1.56341211       0.00000000
Si      -1.78469982       0.38548656       1.49798107       0.00000000
Si      -0.53607132      -2.30834187      -0.24030472       0.00000000
Si       0.47496753       1.52656848      -1.90374320       0.00000000
Si       3.01682655      -1.96040376       0.78606927       0.00000000
Si      -0.83251674       2.04301035       2.96971384       0.00000000
Si       2.60411940       2.14029423       1.55113301       0.00000000
Si      -2.06221626      -1.74607623       2.55529426       0.00000000
Si      -2.44636704      -2.41781067      -1.50729387       0.00000000
Si       0.98725545      -0.04088790      -3.68445397       0.00000000
