10
Lattice="16.28999089631971 0.0 0.0 0.0 16.28999089631971 0.0 0.0 0.0 34.49183129400761" Properties=species:S:1:pos:R:3:initial_magmoms:R:1 pbc="T T T"
Si      -0.02712285       2.06819469      -1.07576633       0.00000000
Si       0.09203850      -1.45736856      -1.88463472       0.00000000
Si      -2.29736241       0.27302040       0.73919485       0.00000000
Si       1.78499304      -0.45994815       1.63784552       0.00000000
Si       0.12360852      -1.90410552       2.64455917       0.00000000
Si      -2.19603861      -1.41328782      -2.39901168       0.00000000
Si       0.61455654      -3.44455308      -0.82328598       0.00000000
Si      -3.42608022      -1.45411056      -0.45653413       0.00000000
Si      -0.88990641      -3.49666479       1.04575842       0.00000000
Si       2.02724163       2.41121322      -2.07071825       0.00000000
