10
Lattice="16.28999089631971 0.0 0.0 0.0 16.28999089631971 0.0 0.0 0.0 34.49183129400761" Properties=species:S:1:pos:R:3:initial_magmoms:R:1 pbc="T T T"
Si      -1.34822556      -1.35620766      -1.36005161       0.00000000
Si       1.35568638      -1.35286821       1.35925485       0.00000000
Si      -1.36140417       1.36240250       1.35797865       0.00000000
Si       1.38165264       1.34466768      -1.36374914       0.00000000
Si      -0.01923849       2.67978549      -2.63686404       0.00000000
Si      -2.62036053       0.07607430      -2.69647975       0.00000000
Si       2.71397916      -2.71114470      -0.00155213       0.00000000
Si      -0.00244350      -2.71006956       2.71592281       0.00000000
Si      -2.71743264      -2.70949941      -0.00137967       0.00000000
Si       2.71282257       0.00402363       2.71523297       0.00000000
