10
Lattice="16.28999089631971 0.0 0.0 0.0 16.28999089631971 0.0 0.0 0.0 34.49183129400761" Properties=species:S:1:pos:R:3:initial_magmoms:R:1 pbc="T T T"
Si      -1.35780571      -1.35233064       1.39053206       0.00000000
Si       1.35669636       1.36278882       1.39022163       0.00000000
Si      -1.29438548       1.37007045      -1.53666368       0.00000000
Si       1.24807464      -1.52355483      -1.48276327       0.00000000
Si      -2.71307411       2.70630657       0.00539453       0.00000000
Si       2.70528030       2.72438847       0.01364843       0.00000000
Si      -2.72563370      -2.70949941       0.00894719       0.00000000
Si       2.71668330      -2.71932228       0.00200053       0.00000000
Si       0.00060273      -2.70977634       2.75364999       0.00000000
Si       2.71404432       0.00485442       2.75264973       0.00000000
