10
Lattice="16.28999089631971 0.0 0.0 0.0 16.28999089631971 0.0 0.0 0.0 34.49183129400761" Properties=species:S:1:pos:R:3:initial_magmoms:R:1 pbc="T T T"
Si       0.76193217       0.19091880      -2.30988474       0.00000000
Si       0.39822534       2.41428944       0.37689245       0.00000000
Si      -2.26852911      -0.96658344      -0.55080036       0.00000000
Si       2.00204100      -1.93117950       0.08640209       0.00000000
Si      -0.13937724      -0.35285769       2.90407585       0.00000000
Si       2.55590100      -1.58803065      -2.23462352       0.00000000
Si      -0.88614342      -0.85551822      -3.65734338       0.00000000
Si      -1.75624119      -2.53403982      -2.33151113       0.00000000
Si      -2.74349664      -2.49315192       1.35294284       0.00000000
Si      -0.97743258      -2.59095708       2.91635495       0.00000000
