10
Lattice="16.28999089631971 0.0 0.0 0.0 16.28999089631971 0.0 0.0 0.0 34.49183129400761" Properties=species:S:1:pos:R:3:initial_magmoms:R:1 pbc="T T T"
Si      -0.89695998       1.72722870       1.46231650       0.00000000
Si       1.60441839      -1.22697909       1.36066901       0.00000000
Si      -1.51164684      -1.94202864      -0.57473771       0.00000000
Si       1.24639677       0.10290393      -2.45833767       0.00000000
Si       0.65746440      -2.14790166      -2.15273987       0.00000000
Si      -2.52617175       1.68050898      -1.44551897       0.00000000
Si      -0.76315392       1.06132608      -3.21788271       0.00000000
Si       0.18868707      -2.33839692       2.84256795       0.00000000
Si      -1.54730565       3.38280488      -0.03949317       0.00000000
Si       1.97294706      -3.11701005      -0.48678349       0.00000000
