10
Lattice="16.28999089631971 0.0 0.0 0.0 16.28999089631971 0.0 0.0 0.0 34.49183129400761" Properties=species:S:1:pos:R:3:initial_magmoms:R:1 pbc="T T T"
Si      -0.87050502       1.51456275      -1.52388445       0.00000000
Si       0.90106506       1.64125008       1.45462968       0.00000000
Si      -1.77785802      -1.11902526       1.22776988       0.00000000
Si       1.74097746      -0.84833433      -2.01749732       0.00000000
Si       2.09650671      -2.40150438      -0.14076124       0.00000000
Si       2.17320003       0.20896812       2.79105782       0.00000000
Si       2.35566432       2.82092301       0.01955688       0.00000000
Si       3.25262430       1.09369431      -1.44275962       0.00000000
Si      -1.65514545       0.29701557      -3.35015895       0.00000000
Si      -0.55970811      -2.49961905       2.77177688       0.00000000
