10
Lattice="16.28999089631971 0.0 0.0 0.0 16.28999089631971 0.0 0.0 0.0 34.49183129400761" Properties=species:S:1:pos:R:3:initial_magmoms:R:1 pbc="T T T"
Si      -1.25739252       1.54260828      -1.24512131       0.00000000
Si       0.97886610       1.70229590       1.40602580       0.00000000
Si      -1.59695757      -1.25964054       1.36439413       0.00000000
Si       1.76301783      -0.61918290      -1.77236374       0.00000000
Si       1.62921177       0.04671972       2.90783546       0.00000000
Si       2.52617175      -1.68050898       1.44551897       0.00000000
Si      -2.38159800      -2.47718772      -0.46188037       0.00000000
Si       0.38046924      -2.00803572      -3.04600982       0.00000000
Si      -0.33303276       1.55214608      -3.34322609       0.00000000
Si       1.01452491      -3.62253762       0.87078126       0.00000000
