10
Lattice="16.28999089631971 0.0 0.0 0.0 16.28999089631971 0.0 0.0 0.0 34.49183129400761" Properties=species:S:1:pos:R:3:initial_magmoms:R:1 pbc="T T T"
Si      -1.35681039      -1.35759240       1.35701288       0.00000000
Si       1.35729909      -1.35790191      -1.35746127       0.00000000
Si      -1.35826020       1.35754565      -1.35728881       0.00000000
Si       1.35928647       1.35762547       1.35701288       0.00000000
Si       2.71480995       0.00022797       2.71195624       0.00000000
Si       0.00016290      -2.71479375      -2.71343939       0.00000000
Si      -0.00071676       2.71470302      -2.71471559       0.00000000
Si       2.71493338      -2.71467972       0.00017246       0.00000000
Si       2.71499054       2.71473560       0.00024144       0.00000000
Si      -2.71533123      -0.00063540       2.71443966       0.00000000
