10
Lattice="16.28999089631971 0.0 0.0 0.0 16.28999089631971 0.0 0.0 0.0 34.49183129400761" Properties=species:S:1:pos:R:3:initial_magmoms:R:1 pbc="T T T"
Si       0.77431257      -1.38877137       1.78722973       0.00000000
Si      -0.57909321       2.04037137       1.16672134       0.00000000
Si      -1.81706805       0.00902466      -1.67520020       0.00000000
Si       2.48792155       0.89968041      -0.20025968       0.00000000
Si       1.15096995       2.34064494      -1.66026523       0.00000000
Si      -0.30499767       1.12109409      -3.09226339       0.00000000
Si       0.66363831      -2.84978889      -1.58579732       0.00000000
Si       2.97571452      -1.72480149       0.78734547       0.00000000
Si       0.79254108       1.78939134       3.09567808       0.00000000
Si      -2.99543778       1.85396490       1.09656491       0.00000000
