10
Lattice="16.28999089631971 0.0 0.0 0.0 16.28999089631971 0.0 0.0 0.0 34.49183129400761" Properties=species:S:1:pos:R:3:initial_magmoms:R:1 pbc="T T T"
Si      -1.43094618       1.22515461      -1.35456396       0.00000000
Si      -1.51207038      -1.11206943       1.41706319       0.00000000
Si       1.45596762       1.21955085       1.43199816       0.00000000
Si       1.28775708      -1.50785127      -1.34618244       0.00000000
Si       0.30499767      -1.12109409       3.09226339       0.00000000
Si      -0.07512948       2.55940335      -2.71771638       0.00000000
Si      -3.27600045       0.64112553       1.69765439       0.00000000
Si      -2.77920432       2.55423942       0.13613933       0.00000000
Si      -2.62746297      -2.73202848       0.06722462       0.00000000
Si       2.64458098      -0.15820848      -2.71540543       0.00000000
