10
Lattice="16.28999089631971 0.0 0.0 0.0 16.28999089631971 0.0 0.0 0.0 34.49183129400761" Properties=species:S:1:pos:R:3:initial_magmoms:R:1 pbc="T T T"
Si       2.11054869      -0.66251430       0.70694497       0.00000000
Si      -1.82037492      -1.32004386       0.58963819       0.00000000
Si      -0.23573259       2.17642545       0.78913905       0.00000000
Si       0.81958248       0.06279795      -2.22406902       0.00000000
Si       1.47561336      -2.90504457       0.48781824       0.00000000
Si       3.10385655      -0.02257794      -1.41347604       0.00000000
Si      -1.74752604       1.71326817       2.51121367       0.00000000
Si       0.04828356       2.18743749      -2.85375224       0.00000000
Si      -0.93626775       3.42870291      -1.05948617       0.00000000
Si      -2.83662657      -1.89115497      -1.48466722       0.00000000
