10
Lattice="16.28999089631971 0.0 0.0 0.0 16.28999089631971 0.0 0.0 0.0 34.49183129400761" Properties=species:S:1:pos:R:3:initial_magmoms:R:1 pbc="T T T"
Si       1.34029885       1.35809730      -1.37432779       0.00000000
Si      -1.24810396       1.43907489       1.39133227       0.00000000
Si      -1.37173548      -1.35783666      -1.37336201       0.00000000
Si       1.43597002      -1.32743952       1.46724883       0.00000000
Si      -2.56034884       0.01992267       2.77404157       0.00000000
Si       0.38011738       2.68299558       2.65707971       0.00000000
Si       2.69965048      -2.70457983      -0.01407268       0.00000000
Si       2.70896836       2.70651834      -0.00710532       0.00000000
Si       2.70150754       0.00304623      -2.73240991       0.00000000
Si      -2.72855938      -2.70747945      -0.00413902       0.00000000
