10
Lattice="16.28999089631971 0.0 0.0 0.0 16.28999089631971 0.0 0.0 0.0 34.49183129400761" Properties=species:S:1:pos:R:3:initial_magmoms:R:1 pbc="T T T"
Si       0.62195057       2.17929249      -0.67200472       0.00000000
Si       1.81468808      -1.37958381      -0.69676987       0.00000000
Si      -2.28427407       0.08537589      -0.81059298       0.00000000
Si      -0.99330786      -0.63993636       2.12042101       0.00000000
Si      -3.10385655       0.02257794       1.41347604       0.00000000
Si       0.61357751       3.07983627       1.47821724       0.00000000
Si      -1.92745791      -1.32074433      -2.65387197       0.00000000
Si      -0.99022905       2.67776649      -2.37148719       0.00000000
Si       3.63493268      -0.72026235       0.72826093       0.00000000
Si      -1.62824319      -2.88246663       1.90129428       0.00000000
