10
Lattice="16.28999089631971 0.0 0.0 0.0 16.28999089631971 0.0 0.0 0.0 34.49183129400761" Properties=species:S:1:pos:R:3:initial_magmoms:R:1 pbc="T T T"
Si      -0.70910370       1.32659244       1.75963625       0.00000000
Si       2.30943330       0.20706219       0.23964938       0.00000000
Si      -0.73529802       0.28802349      -2.24038366       0.00000000
Si      -0.55687365      -2.21988717       0.66827960       0.00000000
Si      -0.13193271       3.34060659       0.73146868       0.00000000
Si       2.68708437      -1.97609103       0.94431788       0.00000000
Si      -3.05627183      -0.00526167      -1.89963867       0.00000000
Si       0.60717717      -1.19925351      -3.50557923       0.00000000
Si       0.12074148      -3.69190044      -1.04120549       0.00000000
Si      -3.05016308       1.61759700       1.75718733       0.00000000
