10
Lattice="16.28999089631971 0.0 0.0 0.0 16.28999089631971 0.0 0.0 0.0 34.49183129400761" Properties=species:S:1:pos:R:3:initial_magmoms:R:1 pbc="T T T"
Si       1.35228177       1.33955928       1.36839174       0.00000000
Si       1.39947390      -1.23913143      -1.44476359       0.00000000
Si      -1.35912357      -1.37484342       1.36804682       0.00000000
Si      -1.37849564       1.36316349      -1.44437729       0.00000000
Si      -2.01560568      -0.49256073      -2.92827330       0.00000000
Si      -0.20522142      -2.23679619      -2.81120796       0.00000000
Si       2.72070693       2.69786835      -0.02635177       0.00000000
Si      -0.00115659       2.69794980       2.72971610       0.00000000
Si       2.70497079      -2.72706003      -0.01052691       0.00000000
Si      -2.73736250       2.70111006      -0.00874023       0.00000000
