10
Lattice="16.28999089631971 0.0 0.0 0.0 16.28999089631971 0.0 0.0 0.0 34.49183129400761" Properties=species:S:1:pos:R:3:initial_magmoms:R:1 pbc="T T T"
Si      -1.35635427       1.35764118      -1.35890993       0.00000000
Si      -1.34029885      -1.35809730       1.37432779       0.00000000
Si       1.36120869      -1.35505107      -1.35808212       0.00000000
Si       1.36866951       1.34842104       1.36722246       0.00000000
Si      -2.58840281       0.08097759       2.76566005       0.00000000
Si      -2.71203433      -2.71593396       0.00096577       0.00000000
Si       2.62018134      -0.17550846       2.80160056       0.00000000
Si      -2.71345192       0.00118917      -2.71713002       0.00000000
Si       0.00162900      -2.71422351      -2.71650917       0.00000000
Si       2.71974582       2.71150308       0.00044839       0.00000000
