10
Lattice="16.28999089631971 0.0 0.0 0.0 16.28999089631971 0.0 0.0 0.0 34.49183129400761" Properties=species:S:1:pos:R:3:initial_magmoms:R:1 pbc="T T T"
Si      -0.42831134       0.69165711       2.13963297       0.00000000
Si       1.10467377       1.52932149      -1.32931592       0.00000000
Si      -1.62822134      -1.24392069      -1.26574744       0.00000000
Si       1.74503367      -0.25550865       2.02777589       0.00000000
Si       2.32885098       0.02352276      -2.66418503       0.00000000
Si       2.24795484       3.03570666       0.15034998       0.00000000
Si      -0.38011738      -2.68299558      -2.65707971       0.00000000
Si      -0.40415001       2.74910040      -2.66166712       0.00000000
Si      -1.90380320      -0.64014813       3.31942672       0.00000000
Si      -2.94046622      -2.66307291       0.11696187       0.00000000
