10
Lattice="16.28999089631971 0.0 0.0 0.0 16.28999089631971 0.0 0.0 0.0 34.49183129400761" Properties=species:S:1:pos:R:3:initial_magmoms:R:1 pbc="T T T"
Si       0.72105567       1.90304245       1.11088593       0.00000000
Si      -1.99478122      -0.78773553       0.97747490       0.00000000
Si       1.82681110      -1.59257556      -0.40046905       0.00000000
Si      -0.57761638      -2.04429726       2.52741105       0.00000000
Si       2.17722529       0.66576898       2.52253390       0.00000000
Si       0.78125048      -3.38224383       1.09177400       0.00000000
Si       2.18064619       2.88519425      -0.48614681       0.00000000
Si       3.71223199      -0.61629957       0.94585622       0.00000000
Si       0.80513488      -0.69196662       3.90247351       0.00000000
Si      -3.29161183      -2.39246343      -0.32624259       0.00000000
