10
Lattice="16.28999089631971 0.0 0.0 0.0 16.28999089631971 0.0 0.0 0.0 34.49183129400761" Properties=species:S:1:pos:R:3:initial_magmoms:R:1 pbc="T T T"
Si       0.33617673      -2.04087636       1.09928977       0.00000000
Si      -1.48285752      -0.01690902      -1.90612314       0.00000000
Si      -1.23724016       1.35734796       1.57062091       0.00000000
Si       2.24106417       0.37235682      -0.89013119       0.00000000
Si      -0.34018407       1.53143919      -3.34608892       0.00000000
Si      -3.61700621      -0.02041137      -0.83573754       0.00000000
Si      -1.80092466      -2.60333748       1.94075296       0.00000000
Si      -0.16539237       3.44740383       1.51936602       0.00000000
Si       2.15216964      -1.14916176      -2.89593577       0.00000000
Si       2.20276638      -1.71256770       2.57157441       0.00000000
