10
Lattice="16.28999089631971 0.0 0.0 0.0 16.28999089631971 0.0 0.0 0.0 34.49183129400761" Properties=species:S:1:pos:R:3:initial_magmoms:R:1 pbc="T T T"
Si       1.84412574      -0.62022546      -1.22815132       0.00000000
Si      -0.24153183      -0.72479097       2.19554426       0.00000000
Si      -2.06775486      -0.45312264      -0.99809068       0.00000000
Si       0.22061547       2.33422668       0.32456831       0.00000000
Si      -2.02305510       0.80544276       2.50873026       0.00000000
Si      -3.34505702       0.90220536       0.45649964       0.00000000
Si       2.45995290       1.45298655      -2.27628968       0.00000000
Si      -0.50666787       2.61845460       2.53394380       0.00000000
Si       2.42303976       2.79397935      -0.31787689       0.00000000
Si       1.29518532      -2.73022029      -2.23524438       0.00000000
