10
Lattice="10.86 0.0 0.0 0.0 10.86 0.0 0.0 0.0 10.86" Properties=species:S:1:pos:R:3:initial_magmoms:R:1 pbc="T T T"
Si      -1.71931176       0.83954316      -1.23618294       0.00000000
Si       1.25934732      -1.46612172      -1.21473444       0.00000000
Si       1.25934732       1.24887828       1.50026556       0.00000000
Si      -1.45565268      -1.46612172       1.50026556       0.00000000
Si       2.64179274       0.00855768      -2.52428754       0.00000000
Si      -2.59943874       2.56943256       0.22434588       0.00000000
Si      -0.09815268      -2.82362172      -2.57223444       0.00000000
Si       2.61684732      -2.82362172       0.14276556       0.00000000
Si       3.06432276       2.30984598       0.49316346       0.00000000
Si      -0.09815268       2.60637828       2.85776556       0.00000000
