10
Lattice="10.86 0.0 0.0 0.0 10.86 0.0 0.0 0.0 10.86" Properties=species:S:1:pos:R:3:initial_magmoms:R:1 pbc="T T T"
Si       1.14378606       1.39444572       1.27591968       0.00000000
Si      -1.57121394      -1.32055428       1.27591968       0.00000000
Si       0.88012698      -1.72988940      -1.46052882       0.00000000
Si      -1.57121394       1.39444572      -1.43908032       0.00000000
Si       2.44012254       2.62828290      -0.28674744       0.00000000
Si       2.50128606       0.03694572       2.63341968       0.00000000
Si       2.59943874      -2.56943256      -0.22434588       0.00000000
Si      -0.21371394      -2.67805428       2.63341968       0.00000000
Si      -0.21371394       2.75194572       2.63341968       0.00000000
Si      -0.32750502       2.65933164      -2.79986004       0.00000000
