10
Lattice="10.86 0.0 0.0 0.0 10.86 0.0 0.0 0.0 10.86" Properties=species:S:1:pos:R:3:initial_magmoms:R:1 pbc="T T T"
Si      -1.24370892      -1.26488592       1.36077972       0.00000000
Si      -1.24370892       1.45011408      -1.35422028       0.00000000
Si       1.47129108       1.45011408       1.36077972       0.00000000
Si       2.14852068      -1.48436652      -0.77903124       0.00000000
Si       2.63212734       0.14371038      -2.35654398       0.00000000
Si       0.55470708      -2.57566620      -2.46406884       0.00000000
Si      -2.60120892      -2.62238592       0.00327972       0.00000000
Si       2.76762756      -0.03104874       2.51311260       0.00000000
Si      -2.60120892       0.09261408      -2.71172028       0.00000000
Si      -2.60120892       0.09261408       2.71827972       0.00000000
