10
Lattice="10.86 0.0 0.0 0.0 10.86 0.0 0.0 0.0 10.86" Properties=species:S:1:pos:R:3:initial_magmoms:R:1 pbc="T T T"
Si      -1.35750000       1.35750000      -1.35750000       0.00000000
Si      -1.35750000      -1.35750000       1.35750000       0.00000000
Si       1.35750000      -1.35750000      -1.35750000       0.00000000
Si       1.35750000       1.35750000       1.35750000       0.00000000
Si       2.43497490      -2.61530520       0.15722022       0.00000000
Si       2.62447104      -0.07321812       2.47883844       0.00000000
Si      -2.51537148       2.64099996      -0.02409834       0.00000000
Si       2.70189198       2.58559224       0.10598274       0.00000000
Si      -2.87334966      -0.11102178      -2.40295962       0.00000000
Si       0.00000000       2.71500000      -2.71500000       0.00000000
