10
Lattice="10.86 0.0 0.0 0.0 10.86 0.0 0.0 0.0 10.86" Properties=species:S:1:pos:R:3:initial_magmoms:R:1 pbc="T T T"
Si      -1.61679336       1.06682124      -1.32485484       0.00000000
Si       1.09820664      -1.64817876      -1.32485484       0.00000000
Si       1.28901684       1.89574332       0.85515984       0.00000000
Si      -1.61679336      -1.64817876       1.39014516       0.00000000
Si       2.16790578       0.04721928       2.68296300       0.00000000
Si      -0.27495348       2.48749386      -2.42580906       0.00000000
Si      -0.20720880       2.38509492       2.70681156       0.00000000
Si       2.51738058      -0.50126502      -2.78363520       0.00000000
Si      -2.97429336       2.42432124       0.03264516       0.00000000
Si       2.45570664      -3.00567876       0.03264516       0.00000000
