10
Lattice="10.86 0.0 0.0 0.0 10.86 0.0 0.0 0.0 10.86" Properties=species:S:1:pos:R:3:initial_magmoms:R:1 pbc="T T T"
Si      -1.49622564       0.48935160       1.85165172       0.00000000
Si      -1.28901684      -1.89574332      -0.85515984       0.00000000
Si       0.08097216       1.93852086      -1.92185076       0.00000000
Si       0.87888894      -1.84852404       1.82780316       0.00000000
Si      -2.90581020       1.88607792       0.53498532       0.00000000
Si      -1.56397032       0.59175054      -3.28096890       0.00000000
Si      -2.90581020      -0.82892208      -2.18001468       0.00000000
Si      -1.66270944       3.23541120      -0.90954672       0.00000000
Si      -0.19081020       1.88607792       3.24998532       0.00000000
Si       1.36082316       3.42374532       1.81943010       0.00000000
