10
Lattice="16.28999089631971 0.0 0.0 0.0 16.28999089631971 0.0 0.0 0.0 34.5300574570662" Properties=species:S:1:pos:R:3:initial_magmoms:R:1 pbc="T T T"
Si       2.18652525       0.64311291       0.38487224       0.00000000
Si      -0.71461461      -0.32886252       2.26068413       0.00000000
Si       0.69735861      -2.06720100      -1.05948635       0.00000000
Si      -1.43845424       1.60818138      -1.11936150       0.00000000
Si      -1.07958391      -3.20323302      -0.06650493       0.00000000
Si      -0.86472207      -2.65105089       2.25992446       0.00000000
Si       3.35373633       0.35204319      -1.65917019       0.00000000
Si       0.97494021      -1.55652579      -3.34306391       0.00000000
Si      -0.80024299       3.72533145      -0.17579262       0.00000000
Si      -2.94890444       0.33508530       2.44448772       0.00000000
