10
Lattice="16.28999089631971 0.0 0.0 0.0 16.28999089631971 0.0 0.0 0.0 34.5300574570662" Properties=species:S:1:pos:R:3:initial_magmoms:R:1 pbc="T T T"
Si       0.32855301       2.20345449      -0.76763814       0.00000000
Si       2.22451353      -0.83210949       0.18974277       0.00000000
Si      -1.26399486      -0.93028932      -1.79542587       0.00000000
Si      -1.31112183      -0.38613816       1.95536919       0.00000000
Si       2.76042195      -1.33349940      -2.08230175       0.00000000
Si       1.75298319       2.12850420      -2.61772512       0.00000000
Si      -1.15017337      -2.71542897       2.47787831       0.00000000
Si      -3.49828469      -0.26634150      -1.61162227       0.00000000
Si      -1.56824807       3.13394743      -1.83209681       0.00000000
Si      -1.41410232      -3.25247769      -1.79618553       0.00000000
