10
Lattice="16.28999089631971 0.0 0.0 0.0 16.28999089631971 0.0 0.0 0.0 34.5300574570662" Properties=species:S:1:pos:R:3:initial_magmoms:R:1 pbc="T T T"
Si       0.78708393       1.73120576      -1.48717588       0.00000000
Si       1.69207488      -1.67713695      -0.48428433       0.00000000
Si      -2.42279704      -0.33324453      -0.28438971       0.00000000
Si       0.71236170       0.79375698       2.26890228       0.00000000
Si      -1.73656287      -1.96172325       2.35688990       0.00000000
Si       2.75055021       0.82574077      -2.34459221       0.00000000
Si       1.67962932       3.32562698       0.17026781       0.00000000
Si       0.02280600      -1.07241957       3.63689557       0.00000000
Si       3.80299824      -0.27354168      -0.53714987       0.00000000
Si      -0.66867192       2.82837473       2.53885397       0.00000000
