10
Lattice="16.28999089631971 0.0 0.0 0.0 16.28999089631971 0.0 0.0 0.0 34.5300574570662" Properties=species:S:1:pos:R:3:initial_magmoms:R:1 pbc="T T T"
Si       1.35576783       1.35483930       1.35813698       0.00000000
Si       1.35762489      -1.35737239      -1.35692843       0.00000000
Si      -1.35772263      -1.35693582       1.35786074       0.00000000
Si      -1.35764118       1.35741312      -1.35799886       0.00000000
Si       2.71267596       0.00273672      -2.71402950       0.00000000
Si       0.00047241       2.71283886      -2.71568695       0.00000000
Si      -2.71511946      -0.00034209      -2.71396044       0.00000000
Si       2.71453302       2.71479366       0.00017265       0.00000000
Si      -0.00120546      -2.71526879      -2.71437480       0.00000000
Si       2.71500543      -2.71482771       0.00041436       0.00000000
