10
Lattice="16.28999089631971 0.0 0.0 0.0 16.28999089631971 0.0 0.0 0.0 34.5300574570662" Properties=species:S:1:pos:R:3:initial_magmoms:R:1 pbc="T T T"
Si       1.26837198      -1.36893015       1.43759069       0.00000000
Si       1.35729909       1.35438318      -1.37395175       0.00000000
Si      -1.36130643      -1.35889551      -1.37015345       0.00000000
Si      -1.32234075       1.32911739       1.48113311       0.00000000
Si       2.71668330       2.69177589       0.00656071       0.00000000
Si       2.70690930      -2.71293171       0.00773474       0.00000000
Si      -2.71698466       2.71484253       0.02033822       0.00000000
Si      -2.72394701      -2.71340412       0.00915047       0.00000000
Si      -0.00184077       2.71011843      -2.73039676       0.00000000
Si       2.71292031      -0.00667890      -2.72991334       0.00000000
