10
Lattice="16.28999089631971 0.0 0.0 0.0 16.28999089631971 0.0 0.0 0.0 34.5300574570662" Properties=species:S:1:pos:R:3:initial_magmoms:R:1 pbc="T T T"
Si       0.80633871       1.92292047      -1.01684170       0.00000000
Si      -1.87486497       1.24274781       0.74678197       0.00000000
Si      -0.89254539      -1.59442122      -1.65744368       0.00000000
Si       2.05553736      -0.05137866       2.06344833       0.00000000
Si      -2.34830124      -0.49725225       2.36858617       0.00000000
Si       2.61115668       0.87695586      -1.95088028       0.00000000
Si      -0.96726762      -2.53186999       2.09863447       0.00000000
Si      -0.89099784       2.36602476      -2.56119938       0.00000000
Si       1.07092089      -2.49988621      -2.51486002       0.00000000
Si      -1.67962932      -3.32562698      -0.17026781       0.00000000
