10
Lattice="16.28999089631971 0.0 0.0 0.0 16.28999089631971 0.0 0.0 0.0 34.5300574570662" Properties=species:S:1:pos:R:3:initial_magmoms:R:1 pbc="T T T"
Si      -1.05709068      -1.63035207       1.31102211       0.00000000
Si       1.12075200      -1.74055229      -1.15765535       0.00000000
Si       1.68865398       1.13801940       1.45790960       0.00000000
Si      -2.05553736       0.05137866      -2.06344833       0.00000000
Si       1.96506270       0.14268411      -2.35802441       0.00000000
Si      -2.21630337      -0.19070703       2.81262465       0.00000000
Si       0.45193347       2.53547334       2.83008306       0.00000000
Si      -1.24919865       1.97429913      -3.08029003       0.00000000
Si      -3.33998757       1.37899737       1.48406959       0.00000000
Si      -3.02280498      -2.48049133       0.03518615       0.00000000
