10
Lattice="16.28999089631971 0.0 0.0 0.0 16.28999089631971 0.0 0.0 0.0 34.5300574570662" Properties=species:S:1:pos:R:3:initial_magmoms:R:1 pbc="T T T"
Si       1.12368420      -1.56970440       1.32855506       0.00000000
Si      -1.60665012       1.15406505       1.30530941       0.00000000
Si      -1.06385103      -1.82487096      -1.17893175       0.00000000
Si       0.65971242       2.05029198      -1.78755443       0.00000000
Si      -0.59041476      -0.08487090      -2.80073595       0.00000000
Si       2.39171409       2.42623260      -0.06217486       0.00000000
Si       2.46464442      -0.20465127       2.68814576       0.00000000
Si      -0.25635573       2.51501310       2.68313890       0.00000000
Si       2.28289689      -3.00934944      -0.17304748       0.00000000
Si      -2.89661287       2.54894517      -0.12863835       0.00000000
