10
Lattice="16.28999089631971 0.0 0.0 0.0 16.28999089631971 0.0 0.0 0.0 34.5300574570662" Properties=species:S:1:pos:R:3:initial_magmoms:R:1 pbc="T T T"
Si      -1.13428899      -1.90504612       0.75531090       0.00000000
Si       0.68279535       1.34282868       1.79780845       0.00000000
Si      -0.91932615       0.72353175      -2.16275683       0.00000000
Si       2.40655428      -1.35815366      -2.06272320       0.00000000
Si      -1.40467041       2.73055749       1.74611692       0.00000000
Si       0.79490313      -0.25267908      -3.62275753       0.00000000
Si       0.46845153      -3.39483178       1.73265019       0.00000000
Si       2.09888505      -3.24362800      -0.04730621       0.00000000
Si      -1.88625657      -3.04824574      -1.45696206       0.00000000
Si      -2.95113712      -0.58084438      -2.52079919       0.00000000
