10
Lattice="16.28999089631971 0.0 0.0 0.0 16.28999089631971 0.0 0.0 0.0 34.5300574570662" Properties=species:S:1:pos:R:3:initial_magmoms:R:1 pbc="T T T"
Si       0.93582792       0.91689894       1.93637764       0.00000000
Si      -0.00698841       1.85844465      -1.42315711       0.00000000
Si      -1.89504828      -1.36783872       0.44643936       0.00000000
Si       1.73985345      -1.27922112      -1.00164847       0.00000000
Si       0.03797199      -0.61673940       3.41820136       0.00000000
Si      -0.82867230      -2.52499073       2.30508980       0.00000000
Si       0.52522218       3.79346859      -0.08017884       0.00000000
Si       3.28116438       0.81125829       1.91068727       0.00000000
Si      -2.08285569       2.00086812      -2.60719345       0.00000000
Si       1.62166950       1.74043989      -3.09593215       0.00000000
