10
Lattice="16.28999089631971 0.0 0.0 0.0 16.28999089631971 0.0 0.0 0.0 34.5300574570662" Properties=species:S:1:pos:R:3:initial_magmoms:R:1 pbc="T T T"
Si       1.62865791      -0.11800476      -1.67277504       0.00000000
Si       0.00698841      -1.85844465       1.42315711       0.00000000
Si      -2.07586728       0.14242347      -1.18403633       0.00000000
Si       0.53221059       1.93502394       1.34297828       0.00000000
Si      -1.54241865       2.87731899       0.70144398       0.00000000
Si       0.94281633      -0.94154571       3.35953476       0.00000000
Si       1.74684186      -3.13766577       0.42150865       0.00000000
Si       3.50181243      -1.27918854      -0.60648627       0.00000000
Si      -2.63746503       2.41495992      -1.49494514       0.00000000
Si       2.05211646       2.21188878      -2.44838962       0.00000000
