10
Lattice="16.28999089631971 0.0 0.0 0.0 16.28999089631971 0.0 0.0 0.0 34.5300574570662" Properties=species:S:1:pos:R:3:initial_magmoms:R:1 pbc="T T T"
Si       1.35767376      -1.35738054      -1.35734279       0.00000000
Si       1.35715248       1.35668007       1.35872399       0.00000000
Si      -1.35775521       1.35772263      -1.35710108       0.00000000
Si      -1.35879777      -1.35803214       1.35751544       0.00000000
Si      -0.00097740       2.71267596      -2.71475463       0.00000000
Si       2.71394658       0.00117288      -2.71361514       0.00000000
Si       0.00034209      -2.71376739       2.71396044       0.00000000
Si      -2.71301805       0.00161271      -2.71516900       0.00000000
Si       2.71472850      -2.71487511       0.00003453       0.00000000
Si      -2.71536381      -2.71459818      -0.00017265       0.00000000
