10
Lattice="16.28999089631971 0.0 0.0 0.0 16.28999089631971 0.0 0.0 0.0 34.5300574570662" Properties=species:S:1:pos:R:3:initial_magmoms:R:1 pbc="T T T"
Si      -0.50124330       0.29639655       2.28302508       0.00000000
Si      -2.24354025      -0.49456440      -0.71977945       0.00000000
Si       1.35860229      -1.95067863      -0.62499439       0.00000000
Si       0.76960476       2.26784493      -0.61156219       0.00000000
Si      -1.29930669       2.80691361      -1.67992276       0.00000000
Si      -1.62442251       2.48300325       2.14801248       0.00000000
Si      -2.40795522       0.82086939      -2.70981683       0.00000000
Si      -0.29512593      -3.73531329      -0.36142631       0.00000000
Si      -2.36975517      -2.79301824      -1.00296061       0.00000000
Si       3.67577334       0.06924879      -1.03162057       0.00000000
