10
Lattice="16.28999089631971 0.0 0.0 0.0 16.28999089631971 0.0 0.0 0.0 34.5300574570662" Properties=species:S:1:pos:R:3:initial_magmoms:R:1 pbc="T T T"
Si      -0.12621492      -2.29845384      -0.28318116       0.00000000
Si      -1.75967838       1.06899867       1.18389821       0.00000000
Si      -0.16441497       1.31543379      -1.99003738       0.00000000
Si       2.24354025       0.49456440       0.71977945       0.00000000
Si      -0.68619996       3.15027423       0.81981308       0.00000000
Si       1.74229695       0.79096095       3.00280453       0.00000000
Si       0.94423356       3.30147801      -0.96014331       0.00000000
Si      -2.52488484       1.25191908      -2.22926176       0.00000000
Si      -3.63995000       0.89523324      -0.17599980       0.00000000
Si       1.94841432      -3.24074889       0.35835314       0.00000000
