10
Lattice="16.28999089631971 0.0 0.0 0.0 16.28999089631971 0.0 0.0 0.0 34.5300574570662" Properties=species:S:1:pos:R:3:initial_magmoms:R:1 pbc="T T T"
Si       0.50124330      -0.29639655      -2.28302508       0.00000000
Si       1.95624981      -0.00781920       1.42208668       0.00000000
Si      -1.70644266      -1.41457473       0.98980465       0.00000000
Si      -1.12317921       2.18660670      -0.13501260       0.00000000
Si       1.11402423       1.56493143       2.96147203       0.00000000
Si      -1.74229695      -0.79096095      -3.00280453       0.00000000
Si       1.27084806       1.97144838      -2.89458727       0.00000000
Si      -1.43179326      -1.17172341       3.29962507       0.00000000
Si      -3.77955693      -0.23263749       0.46467124       0.00000000
Si      -1.16711334       1.10249091       3.49796584       0.00000000
