10
Lattice="16.28999089631971 0.0 0.0 0.0 16.28999089631971 0.0 0.0 0.0 34.5300574570662" Properties=species:S:1:pos:R:3:initial_magmoms:R:1 pbc="T T T"
Si      -1.35853713      -1.35594702       1.35679031       0.00000000
Si       1.35755973      -1.35746199      -1.35772262       0.00000000
Si       1.35726651       1.35822762       1.35786074       0.00000000
Si      -1.35913986       1.35868374      -1.35744638       0.00000000
Si      -2.71329498      -0.00188964       2.71161240       0.00000000
Si      -0.00333945      -2.71251306       2.71509994       0.00000000
Si       2.71480995      -2.71459818      -0.00037983       0.00000000
Si      -2.71529865      -2.71435383      -0.00020718       0.00000000
Si       2.71336014      -0.00131949      -2.71648114       0.00000000
Si      -0.00122175       2.71525425      -2.71492728       0.00000000
