10
Lattice="16.28999089631971 0.0 0.0 0.0 16.28999089631971 0.0 0.0 0.0 34.5300574570662" Properties=species:S:1:pos:R:3:initial_magmoms:R:1 pbc="T T T"
Si       0.68263245       0.07589511       2.22725901       0.00000000
Si       0.17454735       2.20599180      -0.78293496       0.00000000
Si       0.84222558      -1.57275063      -1.53938535       0.00000000
Si      -2.28113757      -0.46244052       0.53649380       0.00000000
Si      -1.09222821       1.62882081       2.75363550       0.00000000
Si      -1.15763256       3.13356951       0.90769213       0.00000000
Si      -1.11402423      -1.56493143      -2.96147203       0.00000000
Si       0.60665589      -2.36001375       2.64389892       0.00000000
Si      -3.40441452       0.91274499      -1.05244221       0.00000000
Si      -2.54581749      -2.73665484       0.33815304       0.00000000
