10
Lattice="16.28999089631971 0.0 0.0 0.0 16.28999089631971 0.0 0.0 0.0 34.5300574570662" Properties=species:S:1:pos:R:3:initial_magmoms:R:1 pbc="T T T"
Si       0.47830698       1.59290203       1.64370071       0.00000000
Si      -1.72481778      -1.58987142       0.05490282       0.00000000
Si      -0.06540435       1.50474870      -1.84594337       0.00000000
Si       1.77486066      -1.55292570      -0.52637649       0.00000000
Si      -1.18890936      -2.09126133      -2.21714170       0.00000000
Si       1.09222821      -1.62882081      -2.75363550       0.00000000
Si      -0.58016835      -0.90997569       3.50400860       0.00000000
Si       3.65519907      -0.39903984       0.32506614       0.00000000
Si      -1.15002513      -2.86966269       2.07111400       0.00000000
Si       1.74462642       3.27524201       0.63859924       0.00000000
