10
Lattice="16.28999089631971 0.0 0.0 0.0 16.28999089631971 0.0 0.0 0.0 34.5300574570662" Properties=species:S:1:pos:R:3:initial_magmoms:R:1 pbc="T T T"
Si      -1.05244803       1.09928245      -1.80744234       0.00000000
Si       1.81341909      -1.38815235      -0.81629101       0.00000000
Si      -2.11092336      -1.40359527       0.05286555       0.00000000
Si       1.05292044       1.80723771       1.61321066       0.00000000
Si       3.54517641      -0.41438502       0.67782541       0.00000000
Si       1.06191252      -3.49920603       0.02631192       0.00000000
Si      -3.01591431       2.00474744      -0.95002600       0.00000000
Si      -1.53075501      -0.49361958      -3.45114305       0.00000000
Si      -3.80299824       0.27354168       0.53714987       0.00000000
Si       2.12444406      -0.89265942      -3.12607691       0.00000000
