10
Lattice="16.28999089631971 0.0 0.0 0.0 16.28999089631971 0.0 0.0 0.0 34.5300574570662" Properties=species:S:1:pos:R:3:initial_magmoms:R:1 pbc="T T T"
Si       1.35620766      -1.35849219       1.36224606       0.00000000
Si      -1.36031274       1.36082099       1.36190076       0.00000000
Si       1.35540945       1.35816572      -1.37134128       0.00000000
Si      -1.37653758      -1.37336496      -1.39044677       0.00000000
Si      -0.15029154       2.67641768      -2.70701990       0.00000000
Si      -2.71471221      -2.71093686      -0.00065607       0.00000000
Si      -2.71428867       2.71274438       0.00728585       0.00000000
Si       2.71565703      -2.71566096      -0.00069060       0.00000000
Si       2.71472850       0.00068581       2.71800046       0.00000000
Si      -0.00039096      -2.71496049       2.71841482       0.00000000
