10
Lattice="16.28999089631971 0.0 0.0 0.0 16.28999089631971 0.0 0.0 0.0 34.5300574570662" Properties=species:S:1:pos:R:3:initial_magmoms:R:1 pbc="T T T"
Si      -1.35653346      -1.35583609      -1.35754997       0.00000000
Si       1.35935163      -1.35497844       1.35806792       0.00000000
Si      -1.35514881       1.36110932       1.35761903       0.00000000
Si       1.35814617       1.35856808      -1.35717014       0.00000000
Si      -2.71425609      -2.71330380       0.00044889       0.00000000
Si      -2.71391400       0.00161923      -2.71489275       0.00000000
Si      -0.00439830      -2.70677151       2.72224766       0.00000000
Si       0.00105885      -2.71405314      -2.71547977       0.00000000
Si      -2.71577106       2.71383092       0.00017265       0.00000000
Si       2.71433754      -2.71537263       0.00027624       0.00000000
