10
Lattice="16.28999089631971 0.0 0.0 0.0 16.28999089631971 0.0 0.0 0.0 34.5300574570662" Properties=species:S:1:pos:R:3:initial_magmoms:R:1 pbc="T T T"
Si      -1.95948337       0.92540232       0.84339712       0.00000000
Si       1.33880994      -0.61390983       1.88333945       0.00000000
Si      -0.79680906      -1.66658429      -1.52025569       0.00000000
Si       1.30214115       1.79593992      -0.91687713       0.00000000
Si      -0.78934824       2.71068858       2.07201179       0.00000000
Si      -3.01195747       1.26514656      -1.34308187       0.00000000
Si       3.18524886       0.59595336      -1.77840254       0.00000000
Si       1.34035749       3.34653615       0.97958375       0.00000000
Si       3.30227622      -1.51937482       1.02592311       0.00000000
Si      -2.69361014      -0.73609134      -2.58471437       0.00000000
