10
Lattice="16.28999089631971 0.0 0.0 0.0 16.28999089631971 0.0 0.0 0.0 34.5300574570662" Properties=species:S:1:pos:R:3:initial_magmoms:R:1 pbc="T T T"
Si      -0.67500873       2.20972221      -0.25279469       0.00000000
Si       2.30694093      -0.12075777      -0.42271720       0.00000000
Si      -0.38802780      -0.33179472       2.29866721       0.00000000
Si      -0.82502334      -1.30469542      -1.85671676       0.00000000
Si      -0.09969480      -2.70093462       2.28478612       0.00000000
Si       2.40569091       1.46245104      -2.17363380       0.00000000
Si       0.45212895       2.88521964      -2.22487644       0.00000000
Si      -3.02034519       2.31536286      -0.22710431       0.00000000
Si      -2.21631966       0.11924280      -3.16513043       0.00000000
Si      -0.22309155       3.46353093       1.71030923       0.00000000
