10
Lattice="16.28999089631971 0.0 0.0 0.0 16.28999089631971 0.0 0.0 0.0 34.5300574570662" Properties=species:S:1:pos:R:3:initial_magmoms:R:1 pbc="T T T"
Si      -1.61507205      -0.65570671       1.47702403       0.00000000
Si       0.06592563      -1.69463145      -1.55775535       0.00000000
Si      -0.62408619       1.84299358      -1.27968464       0.00000000
Si       2.23537896      -0.11575511       0.75392970       0.00000000
Si      -0.43647426       0.51726451       3.22355532       0.00000000
Si       2.80813536       2.06659012       0.00676790       0.00000000
Si       1.98218349      -1.06740551      -2.76993370       0.00000000
Si       1.45621197       2.58379762      -2.03119723       0.00000000
Si       0.14449230      -3.60689826      -0.19778828       0.00000000
Si      -2.09091924       0.87416212      -2.91803320       0.00000000
