10
Lattice="16.28999089631971 0.0 0.0 0.0 16.28999089631971 0.0 0.0 0.0 34.5300574570662" Properties=species:S:1:pos:R:3:initial_magmoms:R:1 pbc="T T T"
Si       1.10871858      -1.93786559       0.83397041       0.00000000
Si       1.02030623       1.66589685      -1.40875807       0.00000000
Si      -2.15153500      -0.69153656      -0.86259585       0.00000000
Si       0.54330571      -3.51568241      -1.04940356       0.00000000
Si      -1.81762258      -3.07410938      -1.01003928       0.00000000
Si       0.22163360      -1.81860650       3.27441812       0.00000000
Si       2.97978961       0.74049453      -2.25215520       0.00000000
Si       3.53151562      -1.60462106       1.11836013       0.00000000
Si       2.19044137       3.45118311      -0.18014341       0.00000000
Si      -0.03216786       2.00564109      -3.59523706       0.00000000
