10
Lattice="16.28999089631971 0.0 0.0 0.0 16.28999089631971 0.0 0.0 0.0 34.5300574570662" Properties=species:S:1:pos:R:3:initial_magmoms:R:1 pbc="T T T"
Si      -1.12075200       1.74055229       1.15765535       0.00000000
Si       1.73043783      -1.19787768       1.12329793       0.00000000
Si       0.84431070       1.88323640      -1.20036906       0.00000000
Si      -1.05292044      -1.80723771      -1.61321066       0.00000000
Si      -2.17784268       0.11020022       2.46867746       0.00000000
Si       2.49225597      -2.22162273      -0.93538525       0.00000000
Si       2.29801401       0.88304669      -2.73999612       0.00000000
Si      -3.17628936       1.79193095      -0.90579297       0.00000000
Si       0.58029867      -2.75529942       2.52098017       0.00000000
Si       0.56790198       2.87857169       2.61556496       0.00000000
