10
Lattice="16.28999089631971 0.0 0.0 0.0 16.28999089631971 0.0 0.0 0.0 34.5300574570662" Properties=species:S:1:pos:R:3:initial_magmoms:R:1 pbc="T T T"
Si       1.36068741       1.36593279      -1.33688026       0.00000000
Si      -1.35711990       1.35710361       1.36076126       0.00000000
Si       1.35913986      -1.35870003       1.35979442       0.00000000
Si      -1.38489435      -1.35795069      -1.33653842       0.00000000
Si      -0.08094501       2.61967635      -2.65328764       0.00000000
Si       2.62637154       0.02520063      -2.75407058       0.00000000
Si      -2.71018359       2.71208952       0.00238258       0.00000000
Si      -2.71339272      -0.00144981       2.71703362       0.00000000
Si       0.00180819       2.71332756       2.71717174       0.00000000
Si      -2.71217097      -2.71907793       0.00559387       0.00000000
