10
Lattice="16.28999089631971 0.0 0.0 0.0 16.28999089631971 0.0 0.0 0.0 34.5300574570662" Properties=species:S:1:pos:R:3:initial_magmoms:R:1 pbc="T T T"
Si       1.99117557       0.66026628      -1.14159887       0.00000000
Si      -2.05558623       1.00545138      -0.81014466       0.00000000
Si      -0.56503494      -2.34678627       0.37768998       0.00000000
Si      -0.59934168       0.81021573       2.24714834       0.00000000
Si       1.69360614       0.29359467       2.52432126       0.00000000
Si      -2.01873825      -1.34659656       1.91731704       0.00000000
Si      -3.42818163      -0.56094615       0.26101285       0.00000000
Si       3.43530036       0.82629396       0.75838408       0.00000000
Si      -0.84673791       3.19215582       1.48862614       0.00000000
Si      -1.82575062       0.86615559      -3.10325253       0.00000000
