10
Lattice="16.28999089631971 0.0 0.0 0.0 16.28999089631971 0.0 0.0 0.0 34.5300574570662" Properties=species:S:1:pos:R:3:initial_magmoms:R:1 pbc="T T T"
Si       1.75834260       0.67906494      -1.51604302       0.00000000
Si       0.80005077       1.74188970       1.50551135       0.00000000
Si       0.24739623      -2.38194009       0.75852220       0.00000000
Si      -1.76650389       0.15910443      -1.82847115       0.00000000
Si      -1.20884832      -2.18670444      -2.29877080       0.00000000
Si      -0.55500030      -1.70919567       2.98774394       0.00000000
Si       0.93164139       2.80443753      -2.02674286       0.00000000
Si       0.84673791      -3.19215582      -1.48862614       0.00000000
Si       0.25456383       3.66738399       0.18186991       0.00000000
Si      -2.30083218       0.12282660       2.92871650       0.00000000
