10
Lattice="16.28999089631971 0.0 0.0 0.0 16.28999089631971 0.0 0.0 0.0 34.5300574570662" Properties=species:S:1:pos:R:3:initial_magmoms:R:1 pbc="T T T"
Si       2.29294782      -0.51662106       0.27717293       0.00000000
Si       0.59934168      -0.81021573      -2.24714834       0.00000000
Si      -0.80239653       0.67274442       2.22922174       0.00000000
Si      -0.24739623       2.38194009      -0.75852220       0.00000000
Si      -1.41939657      -2.15681229      -0.32983129       0.00000000
Si      -1.45624455       0.19523565      -3.05729300       0.00000000
Si       0.03430674      -3.15700200      -1.86945836       0.00000000
Si      -2.82883995      -1.37116188      -1.98613548       0.00000000
Si       1.07874009       1.61912826       3.44074401       0.00000000
Si       2.62050714      -2.48549562       1.69925961       0.00000000
