10
Lattice="16.28999089631971 0.0 0.0 0.0 16.28999089631971 0.0 0.0 0.0 34.5300574570662" Properties=species:S:1:pos:R:3:initial_magmoms:R:1 pbc="T T T"
Si      -1.16791155      -1.01323800       1.82353335       0.00000000
Si       1.25351550       2.02450491       0.34433393       0.00000000
Si       1.50017868      -1.46611629      -1.18320761       0.00000000
Si      -1.75013244       0.50192748      -1.58496505       0.00000000
Si       0.56703861       2.52185490      -1.99159124       0.00000000
Si      -0.27460053       0.68167134      -3.49043828       0.00000000
Si       0.47921922      -3.58942005      -1.30261262       0.00000000
Si      -3.40386066      -1.28270718      -1.32139698       0.00000000
Si      -3.27243294      -1.83524769       0.98365830       0.00000000
Si      -1.33288038       0.53656002       3.61395236       0.00000000
