10
Lattice="16.28999089631971 0.0 0.0 0.0 16.28999089631971 0.0 0.0 0.0 34.5300574570662" Properties=species:S:1:pos:R:3:initial_magmoms:R:1 pbc="T T T"
Si       1.35656604       1.35656604       1.35768809       0.00000000
Si      -1.35712804       1.35751086      -1.35775715       0.00000000
Si      -1.35706614      -1.35698958       1.35855134       0.00000000
Si       1.35791811      -1.35765747      -1.35796433       0.00000000
Si      -2.71452392       2.71445157       0.00020718       0.00000000
Si      -2.71442463      -2.71485882       0.00089778       0.00000000
Si       0.00043983      -2.71541268      -2.71392591       0.00000000
Si       2.71570590       0.00083079       2.71413309       0.00000000
Si       2.71536381       2.71459818       0.00017265       0.00000000
Si      -0.00289962      -2.71244790       2.71793140       0.00000000
