10
Lattice="16.28999089631971 0.0 0.0 0.0 16.28999089631971 0.0 0.0 0.0 34.5300574570662" Properties=species:S:1:pos:R:3:initial_magmoms:R:1 pbc="T T T"
Si      -0.54548694       1.92549429      -1.32364143       0.00000000
Si       1.84104693      -0.99241938       1.23900821       0.00000000
Si      -0.80005077      -1.74188970      -1.50551135       0.00000000
Si      -1.15970139       1.65898989       1.44833787       0.00000000
Si       0.95829183      -1.06282476      -3.02155437       0.00000000
Si       2.92433193      -0.00881289      -2.00115607       0.00000000
Si      -2.18123100       0.08977419       2.79453780       0.00000000
Si       0.13159062       1.06254783      -3.53225420       0.00000000
Si       0.52608555      -2.50470153       2.69375486       0.00000000
Si      -3.10088295      -1.61906310       1.42320515       0.00000000
