10
Lattice="16.28999089631971 0.0 0.0 0.0 16.28999089631971 0.0 0.0 0.0 34.5300574570662" Properties=species:S:1:pos:R:3:initial_magmoms:R:1 pbc="T T T"
Si       1.35610992       1.35580041       1.35830963       0.00000000
Si      -1.35785295      -1.35648459       1.35651407       0.00000000
Si      -1.35716877       1.35711990      -1.35744638       0.00000000
Si       1.35703845      -1.35742941      -1.35744638       0.00000000
Si      -0.00057015       2.71358820      -2.71361514       0.00000000
Si      -0.00415395      -2.71182888       2.71541071       0.00000000
Si       2.71539639      -0.00079821      -2.71289001       0.00000000
Si       2.71296918      -0.00293220       2.71551430       0.00000000
Si      -2.71373481      -0.00314397       2.71551430       0.00000000
Si      -2.71494027      -2.71495656       0.00024171       0.00000000
