10
Lattice="16.28999089631971 0.0 0.0 0.0 16.28999089631971 0.0 0.0 0.0 34.5300574570662" Properties=species:S:1:pos:R:3:initial_magmoms:R:1 pbc="T T T"
Si      -0.07856667       1.91226681      -1.35996707       0.00000000
Si      -1.80745695       0.54121896       1.42205215       0.00000000
Si       2.00204100      -0.71315991       1.10972761       0.00000000
Si      -0.02158425      -1.47419613      -1.92670922       0.00000000
Si       3.37971888      -0.08384463      -0.64947621       0.00000000
Si       2.24316558      -0.99256599      -2.51023299       0.00000000
Si       1.60542837      -3.02827842       0.83659470       0.00000000
Si      -0.14449230       3.60689826       0.19778828       0.00000000
Si      -3.68779536      -0.61266690       0.57060952       0.00000000
Si      -1.75956435       2.95119155       1.67481231       0.00000000
