10
Lattice="16.28999089631971 0.0 0.0 0.0 16.28999089631971 0.0 0.0 0.0 34.5300574570662" Properties=species:S:1:pos:R:3:initial_magmoms:R:1 pbc="T T T"
Si       1.36473289       1.34516304       1.39785693       0.00000000
Si      -1.35386190      -1.36521929       1.39502546       0.00000000
Si      -1.30753314       1.41607341      -1.52703394       0.00000000
Si       1.40916712      -1.43145931      -1.45044278       0.00000000
Si      -2.71106325       2.70259245       0.01025543       0.00000000
Si      -2.70140328      -2.72143088       0.00774510       0.00000000
Si       2.72175668       2.70542691       0.02123600       0.00000000
Si       2.72385809      -2.72993426       0.04028624       0.00000000
Si       0.00443088       2.70681156       2.75664998       0.00000000
Si      -2.71091664      -0.00731421       2.75692622       0.00000000
