10
Lattice="16.28999089631971 0.0 0.0 0.0 16.28999089631971 0.0 0.0 0.0 34.5300574570662" Properties=species:S:1:pos:R:3:initial_magmoms:R:1 pbc="T T T"
Si      -1.36391283       1.30269501       1.49686847       0.00000000
Si       1.36192545      -1.41086780       1.47916835       0.00000000
Si       1.44669861       1.29692835      -1.62565326       0.00000000
Si      -1.70707797      -1.45550240      -1.33107718       0.00000000
Si       2.75579559       2.72663649      -0.05561069       0.00000000
Si      -2.86961382       2.62094697       0.16118985       0.00000000
Si      -0.00382815       2.66245389       2.86831334       0.00000000
Si       2.81688309      -2.75409233       0.02953357       0.00000000
Si       2.70946683      -0.05465621       2.86644871       0.00000000
Si      -2.71932228      -0.05547071       2.86820975       0.00000000
