10
Lattice="16.28999089631971 0.0 0.0 0.0 16.28999089631971 0.0 0.0 0.0 34.5300574570662" Properties=species:S:1:pos:R:3:initial_magmoms:R:1 pbc="T T T"
Si       1.35671265      -1.35258869       1.36058861       0.00000000
Si      -1.35754344      -1.35572170      -1.35810245       0.00000000
Si       1.35791966       1.35947543      -1.35768809       0.00000000
Si      -1.35733167       1.35937769       1.36072673       0.00000000
Si       0.01161477       2.71050287       2.71727533       0.00000000
Si      -0.00014661      -2.71275482      -2.71606678       0.00000000
Si       2.71622948      -2.71335755      -0.00107043       0.00000000
Si      -0.01762578      -2.70503336       2.72570067       0.00000000
Si      -2.71437012       0.00186521      -2.71648114       0.00000000
Si      -2.71533123       2.71576454      -0.00048342       0.00000000
