10
Lattice="16.28999089631971 0.0 0.0 0.0 16.28999089631971 0.0 0.0 0.0 34.5300574570662" Properties=species:S:1:pos:R:3:initial_magmoms:R:1 pbc="T T T"
Si      -1.35799956       1.35638685      -1.36121016       0.00000000
Si       1.36894644       1.35112518       1.35654860       0.00000000
Si       1.35733167      -1.35937769      -1.36072673       0.00000000
Si      -1.37608146      -1.36284746       1.37598903       0.00000000
Si       2.71404432      -2.71196639      -0.00013812       0.00000000
Si      -2.71386513      -2.71408409      -0.00324583       0.00000000
Si       2.71285313       2.71520091      -0.00089778       0.00000000
Si      -2.71531494       2.71539639       0.00372925       0.00000000
Si      -2.71507059      -0.00053757      -2.71848388       0.00000000
Si       2.71525133       0.00009774      -2.71841482       0.00000000
