10
Lattice="16.28999089631971 0.0 0.0 0.0 16.28999089631971 0.0 0.0 0.0 34.5300574570662" Properties=species:S:1:pos:R:3:initial_magmoms:R:1 pbc="T T T"
Si       0.50340987      -2.29762209      -0.13069634       0.00000000
Si       1.82708544       0.18825213      -1.48203089       0.00000000
Si       0.25611138       0.65010132       2.34428144       0.00000000
Si      -0.26565732       1.05561644      -2.55522568       0.00000000
Si      -2.40868827       2.22944125       0.35731723       0.00000000
Si      -2.02906611       0.09470680       2.86572013       0.00000000
Si       1.63711553      -1.19863353       3.02801149       0.00000000
Si       2.89196600      -2.27914923      -0.41819376       0.00000000
Si       0.67153896      -3.09827559       1.99980940       0.00000000
Si      -2.53390950      -2.06094468      -2.25212067       0.00000000
