10
Lattice="16.28999089631971 0.0 0.0 0.0 16.28999089631971 0.0 0.0 0.0 34.5300574570662" Properties=species:S:1:pos:R:3:initial_magmoms:R:1 pbc="T T T"
Si      -0.08322561      -0.43166871       2.35729928       0.00000000
Si       2.28950153       0.70242480      -0.40514139       0.00000000
Si      -0.82793925      -2.14712788      -0.84574517       0.00000000
Si      -1.55043333       1.78412967      -0.80144308       0.00000000
Si       2.57193755       1.69769493       1.83993514       0.00000000
Si      -2.34795915      -0.84103641       2.85114844       0.00000000
Si      -3.65611131       0.74652183      -0.81004107       0.00000000
Si       0.77793125       1.50470730       3.44261412       0.00000000
Si      -3.75486129      -0.83668698       0.94087553       0.00000000
Si       2.36769353       2.64624534      -1.89846362       0.00000000
