10
Lattice="16.28999089631971 0.0 0.0 0.0 16.28999089631971 0.0 0.0 0.0 34.5300574570662" Properties=species:S:1:pos:R:3:initial_magmoms:R:1 pbc="T T T"
Si      -0.26279028      -2.06462296       1.06293935       0.00000000
Si      -0.64174455       1.86583542       1.26518201       0.00000000
Si      -1.85344362       0.12136539      -1.52246561       0.00000000
Si       2.28517749       0.55539452      -0.52143869       0.00000000
Si      -0.37962216       2.13473445      -2.50840290       0.00000000
Si       2.02906611      -0.09470680      -2.86572013       0.00000000
Si      -0.54299457       3.44904423      -0.48573459       0.00000000
Si       1.41641550      -2.02033045       2.75146011       0.00000000
Si       0.76515759       1.86148599       3.17545492       0.00000000
Si      -2.52887589      -2.02181284       2.00119060       0.00000000
