10
Lattice="16.28999089631971 0.0 0.0 0.0 16.28999089631971 0.0 0.0 0.0 34.5300574570662" Properties=species:S:1:pos:R:3:initial_magmoms:R:1 pbc="T T T"
Si      -2.26473354      -0.40936770       0.49384916       0.00000000
Si       0.86115686       1.93637601       1.08531484       0.00000000
Si       1.39718745      -1.79071409       0.75544902       0.00000000
Si       0.08322561       0.43166871      -2.35729928       0.00000000
Si       2.65516316       2.12936364      -0.51736414       0.00000000
Si      -0.74471364      -1.71545918      -3.20304445       0.00000000
Si      -2.29350168      -2.55762285       1.45306016       0.00000000
Si      -2.81947320       1.09358028       2.19179662       0.00000000
Si       1.17856262      -1.78067130       3.15525482       0.00000000
Si       2.37272714       1.13409351      -2.76244067       0.00000000
