10
Lattice="16.28999089631971 0.0 0.0 0.0 16.28999089631971 0.0 0.0 0.0 34.5300574570662" Properties=species:S:1:pos:R:3:initial_magmoms:R:1 pbc="T T T"
Si      -0.55473966       1.50294798       1.69794746       0.00000000
Si      -0.02876814      -2.14825515       0.95921100       0.00000000
Si       2.26473354       0.40936770      -0.49384916       0.00000000
Si      -1.40690214       0.00434943      -1.91027291       0.00000000
Si      -2.63503782       0.76214394       2.44946005       0.00000000
Si      -0.76515759      -1.86148599      -3.17545492       0.00000000
Si       2.34795915       0.84103641      -2.85114844       0.00000000
Si       3.66192099      -1.38134639       0.26159986       0.00000000
Si       0.79718373       0.98574048       3.73591259       0.00000000
Si       3.12589040       2.34574371       0.59146568       0.00000000
