10
Lattice="16.28999089631971 0.0 0.0 0.0 16.28999089631971 0.0 0.0 0.0 34.5300574570662" Properties=species:S:1:pos:R:3:initial_magmoms:R:1 pbc="T T T"
Si      -1.35847197       1.35519768       1.36138281       0.00000000
Si       1.35624024      -1.35920502       1.36003613       0.00000000
Si      -1.36008468      -1.35975888      -1.37144487       0.00000000
Si       1.35609363       1.35070164      -1.38663465       0.00000000
Si       2.71148679       2.71349046      -0.00207180       0.00000000
Si       2.71329498      -2.71711010      -0.00186462       0.00000000
Si      -0.00089595       2.71295289       2.71827670       0.00000000
Si       2.71352304      -0.00259011       2.71786234       0.00000000
Si      -2.71761183       2.71389771       0.00158838       0.00000000
Si      -2.71549413      -2.71792460      -0.00010359       0.00000000
