10
Lattice="16.28999089631971 0.0 0.0 0.0 16.28999089631971 0.0 0.0 0.0 34.5300574570662" Properties=species:S:1:pos:R:3:initial_magmoms:R:1 pbc="T T T"
Si      -2.10567798      -1.03760784      -0.00859799       0.00000000
Si       0.21020616       0.75012192      -2.21465553       0.00000000
Si      -0.78682329       2.14711974       0.91504703       0.00000000
Si       1.55043333      -1.78412967       0.80144308       0.00000000
Si      -1.94230557      -2.35191762      -2.03126630       0.00000000
Si      -2.20442796      -2.62081665       1.74231861       0.00000000
Si      -3.03828048       2.50846452       0.05956438       0.00000000
Si       0.72249408      -3.93125756      -0.04430209       0.00000000
Si       3.83993486      -1.08170487       0.39630169       0.00000000
Si       2.29131949       1.03977441      -3.18992302       0.00000000
