10
Lattice="16.28999089631971 0.0 0.0 0.0 16.28999089631971 0.0 0.0 0.0 34.5300574570662" Properties=species:S:1:pos:R:3:initial_magmoms:R:1 pbc="T T T"
Si      -1.97770374       0.55866555      -1.13769697       0.00000000
Si       1.90630045       1.32374169      -0.41556947       0.00000000
Si       1.24268495      -2.01181500      -0.21122048       0.00000000
Si      -0.47105793       0.96198966       2.23817052       0.00000000
Si      -1.77036462       2.48448564       0.24253926       0.00000000
Si       1.64143483       0.08742843       3.04151275       0.00000000
Si      -3.45745476      -0.79610859       0.09920491       0.00000000
Si       2.20919183      -1.95274746       1.99822101       0.00000000
Si       3.16971539       1.15259895       1.59908785       0.00000000
Si      -2.43794511      -2.85461073       0.89526130       0.00000000
