10
Lattice="16.28999089631971 0.0 0.0 0.0 16.28999089631971 0.0 0.0 0.0 34.5300574570662" Properties=species:S:1:pos:R:3:initial_magmoms:R:1 pbc="T T T"
Si      -2.28950153      -0.70242480       0.40514139       0.00000000
Si       0.07819200       1.94382054      -1.49332223       0.00000000
Si       0.28243602       0.99527013       2.24507653       0.00000000
Si       2.08746576      -1.38772881       0.05169152       0.00000000
Si       1.40467041      -2.73055749      -1.74611692       0.00000000
Si      -2.37272714      -1.13409351       2.76244067       0.00000000
Si       0.64897731       3.31449372       2.02815859       0.00000000
Si       0.36900108       3.96889560      -0.22396208       0.00000000
Si       3.98251404      -0.01989009      -0.39474784       0.00000000
Si      -3.83993486       1.08170487      -0.39630169       0.00000000
