10
Lattice="16.28999089631971 0.0 0.0 0.0 16.28999089631971 0.0 0.0 0.0 34.5300574570662" Properties=species:S:1:pos:R:3:initial_magmoms:R:1 pbc="T T T"
Si       0.91385271      -0.32990508       2.10975316       0.00000000
Si      -2.07679581       1.06051158       0.46204696       0.00000000
Si       1.78167707       1.01880918      -1.20858722       0.00000000
Si      -0.40361733      -2.19390462      -0.86504748       0.00000000
Si      -1.70292402      -0.67140864      -2.86067874       0.00000000
Si       1.70887543      -3.06846585      -0.06170525       0.00000000
Si      -3.27246552       0.44564553      -1.52588409       0.00000000
Si      -2.20033917      -2.97259920       0.57879315       0.00000000
Si       3.80061080      -0.01409085      -0.46636322       0.00000000
Si       2.26370794      -2.25569259       2.11106530       0.00000000
