10
Lattice="16.28999089631971 0.0 0.0 0.0 16.28999089631971 0.0 0.0 0.0 34.5300574570662" Properties=species:S:1:pos:R:3:initial_magmoms:R:1 pbc="T T T"
Si      -0.82670121       2.12537259      -0.51069984       0.00000000
Si       0.58621194      -1.11356811      -2.06289585       0.00000000
Si      -1.75834260      -0.67906494       1.51604302       0.00000000
Si       1.96604010       1.05401187       1.02039830       0.00000000
Si      -0.95829183       1.06282476       3.02155437       0.00000000
Si      -2.81753469       1.42364826      -1.62902543       0.00000000
Si       1.07957088      -3.21095448      -1.11418199       0.00000000
Si      -3.52484649      -0.51996051      -0.31242813       0.00000000
Si       2.23164855      -1.24204734       2.64006608       0.00000000
Si       0.70975530       2.91954267      -2.17964203       0.00000000
