10
Lattice="16.28999089631971 0.0 0.0 0.0 16.28999089631971 0.0 0.0 0.0 34.5300574570662" Properties=species:S:1:pos:R:3:initial_magmoms:R:1 pbc="T T T"
Si      -1.56913425      -1.23918030       1.25162689       0.00000000
Si       1.37077092       1.57169178       1.16324025       0.00000000
Si      -1.39395159      -0.20429289      -1.97888076       0.00000000
Si       0.93638178      -0.01376505      -2.30260022       0.00000000
Si      -0.08084727      -2.52475452       2.61779211       0.00000000
Si       2.61364905       0.18764451       2.63498118       0.00000000
Si       1.99075203      -2.10316932      -2.40018222       0.00000000
Si      -2.39137200       1.84653666      -2.25605368       0.00000000
Si      -2.81002500       0.19860768       2.64298525       0.00000000
Si      -0.08418672       2.91491631       2.61287502       0.00000000
