10
Lattice="16.28999089631971 0.0 0.0 0.0 16.28999089631971 0.0 0.0 0.0 34.5300574570662" Properties=species:S:1:pos:R:3:initial_magmoms:R:1 pbc="T T T"
Si       1.35835794       1.35663120      -1.35544363       0.00000000
Si      -1.35703845       1.35742941       1.35744638       0.00000000
Si       1.35806472      -1.35744570       1.35754997       0.00000000
Si      -1.35707103      -1.35910728      -1.35772262       0.00000000
Si      -2.71176372       0.00024435      -2.71492728       0.00000000
Si      -2.71420722       2.71454931       0.00000000       0.00000000
Si      -2.71489140       0.00094482       2.71396044       0.00000000
Si       2.71213839       0.00405621      -2.71675738       0.00000000
Si      -0.00092853       2.71322982       2.71575601       0.00000000
Si      -2.71412577      -2.71533123       0.00044889       0.00000000
