10
Lattice="16.28999089631971 0.0 0.0 0.0 16.28999089631971 0.0 0.0 0.0 34.5300574570662" Properties=species:S:1:pos:R:3:initial_magmoms:R:1 pbc="T T T"
Si       1.55592306       1.39703040       1.06597800       0.00000000
Si      -1.48139631       1.63370781      -1.05544633       0.00000000
Si      -1.25960796      -0.98705997       1.86196533       0.00000000
Si       1.43782056      -1.38658851      -1.49245898       0.00000000
Si      -0.18669969      -3.16110708       1.67605540       0.00000000
Si      -0.26999046      -2.46241269      -2.69110153       0.00000000
Si       1.72405215       0.59637690       3.19648374       0.00000000
Si       2.48407839       0.31534182      -2.76616992       0.00000000
Si      -0.37950813      -0.10766061       3.85155382       0.00000000
Si      -2.81416266       0.42647220      -2.71903636       0.00000000
