10
Lattice="16.28999089631971 0.0 0.0 0.0 16.28999089631971 0.0 0.0 0.0 34.5300574570662" Properties=species:S:1:pos:R:3:initial_magmoms:R:1 pbc="T T T"
Si      -1.37767788      -0.62931528       1.75920382       0.00000000
Si       2.23428983      -0.66394782      -0.18380360       0.00000000
Si      -0.15209973       2.35040006      -0.04827305       0.00000000
Si      -1.13655330      -0.90872136      -1.86075678       0.00000000
Si      -3.37971888       0.08384463       0.64947621       0.00000000
Si      -0.86200164       0.88977609      -3.30587502       0.00000000
Si      -1.54202769       2.62333738      -1.92266920       0.00000000
Si      -0.17376543       0.32177637       3.60635575       0.00000000
Si       2.08418237      -2.98613619      -0.18456326       0.00000000
Si      -1.77429051      -2.94443379       1.48607091       0.00000000
