10
Lattice="16.28999089631971 0.0 0.0 0.0 16.28999089631971 0.0 0.0 0.0 34.5300574570662" Properties=species:S:1:pos:R:3:initial_magmoms:R:1 pbc="T T T"
Si       1.05437025      -2.08940427      -0.09758200       0.00000000
Si      -2.33033337      -0.19052784       0.32371947       0.00000000
Si       0.26492427       1.07874009      -2.22252839       0.00000000
Si      -0.93638178       0.01376505       2.30260022       0.00000000
Si       2.62585256       0.63716706      -2.26189268       0.00000000
Si       2.78680102      -1.69212375      -1.73938356       0.00000000
Si      -3.32775378       1.86030171       0.04654654       0.00000000
Si       0.43438914       1.58545683       3.46584047       0.00000000
Si       2.30418045       2.33424297       2.06192900       0.00000000
Si       3.19126543       2.21498388      -0.37851870       0.00000000
