10
Lattice="16.28999089631971 0.0 0.0 0.0 16.28999089631971 0.0 0.0 0.0 34.5300574570662" Properties=species:S:1:pos:R:3:initial_magmoms:R:1 pbc="T T T"
Si       1.87486497      -1.24274781      -0.74678197       0.00000000
Si      -0.47343627      -1.74000006       1.62180420       0.00000000
Si      -1.14583860       0.48742938      -2.21555331       0.00000000
Si       1.25012718       2.13516288       1.01318151       0.00000000
Si       0.59041476       0.08487090       2.80073595       0.00000000
Si       2.68120368       0.68017266      -1.76362367       0.00000000
Si       0.98386713       1.12327695      -3.30798135       0.00000000
Si       0.98231958      -2.83716903      -2.40422565       0.00000000
Si      -2.89218524       2.12444406      -1.77494954       0.00000000
Si      -0.59940684       3.78377604       1.38009811       0.00000000
