10
Lattice="16.28999089631971 0.0 0.0 0.0 16.28999089631971 0.0 0.0 0.0 34.5300574570662" Properties=species:S:1:pos:R:3:initial_magmoms:R:1 pbc="T T T"
Si       1.34914870       1.35433431       1.38054700       0.00000000
Si      -1.36792623      -1.35746199       1.37944204       0.00000000
Si      -1.20093744       1.37819916      -1.54332523       0.00000000
Si       1.41953779      -1.32253623      -1.42808801       0.00000000
Si      -0.06731634      -2.45216628      -2.88538298       0.00000000
Si      -2.71031997       2.70604593      -0.00271406       0.00000000
Si       2.70950053      -2.71741635       0.00585975       0.00000000
Si       2.71155307       2.72802114       0.00555244       0.00000000
Si      -2.72331939      -2.72025081      -0.00512081       0.00000000
Si       2.70888151       0.00048870       2.74230964       0.00000000
