10
Lattice="16.28999089631971 0.0 0.0 0.0 16.28999089631971 0.0 0.0 0.0 34.5300574570662" Properties=species:S:1:pos:R:3:initial_magmoms:R:1 pbc="T T T"
Si       0.89148491       1.77435567      -1.22436045       0.00000000
Si      -0.81273905      -1.58700438      -1.60150293       0.00000000
Si      -1.30874742       1.38926007       1.45046005       0.00000000
Si       1.41862931      -1.30116375       1.44153747       0.00000000
Si      -2.49386121      -2.65098573      -0.10734020       0.00000000
Si       1.54187945      -2.09668590      -2.57853145       0.00000000
Si       2.65085378       2.66365935       0.05564522       0.00000000
Si      -2.55162555       2.77330734      -0.02128089       0.00000000
Si      -0.68183424       3.52209348      -1.42519236       0.00000000
Si      -2.66187627       0.04647537       2.81905273       0.00000000
