10
Lattice="16.28999089631971 0.0 0.0 0.0 16.28999089631971 0.0 0.0 0.0 34.5300574570662" Properties=species:S:1:pos:R:3:initial_magmoms:R:1 pbc="T T T"
Si      -2.03343835      -1.17291258       0.45928455       0.00000000
Si      -0.08224821       1.70875584       1.68327218       0.00000000
Si      -0.49653549       1.06868916      -2.11814397       0.00000000
Si       1.94833287      -1.48429593      -0.04637389       0.00000000
Si      -1.05999030      -0.92051532      -3.15591090       0.00000000
Si      -3.38329358       0.75287493       0.45797241       0.00000000
Si      -2.58827086      -1.98568584      -1.71348600       0.00000000
Si      -2.25154027       2.63863791       1.41369587       0.00000000
Si       1.69793928       3.24216612       1.14177152       0.00000000
Si       3.55307706      -0.49616082       1.50516605       0.00000000
