10
Lattice="16.28999089631971 0.0 0.0 0.0 16.28999089631971 0.0 0.0 0.0 34.5300574570662" Properties=species:S:1:pos:R:3:initial_magmoms:R:1 pbc="T T T"
Si       2.16929206      -0.92988207       0.26957631       0.00000000
Si      -0.16094846       2.32929081      -0.52250912       0.00000000
Si      -1.13175331      -1.88576298      -0.95572346       0.00000000
Si      -1.73243077      -0.39728052       1.64180156       0.00000000
Si       1.74109312      -1.59241266       2.64797347       0.00000000
Si      -2.78680102       1.69212375       1.73938356       0.00000000
Si       2.25154027      -2.63863791      -1.41369587       0.00000000
Si      -2.86611703      -2.36087712       0.59661067       0.00000000
Si      -2.52187675       2.77086384      -0.48314483       0.00000000
Si      -0.61352538      -1.08273114       3.62500199       0.00000000
