10
Lattice="16.28999089631971 0.0 0.0 0.0 16.28999089631971 0.0 0.0 0.0 34.5300574570662" Properties=species:S:1:pos:R:3:initial_magmoms:R:1 pbc="T T T"
Si       1.13428899       1.90504612      -0.75531090       0.00000000
Si      -2.00681804      -0.06268392       1.23393229       0.00000000
Si       1.60274052      -1.48978566       0.97733929       0.00000000
Si      -0.75196758      -1.14319962      -2.21227296       0.00000000
Si      -2.97239462      -1.96232598       0.20573020       0.00000000
Si       3.23317404      -1.33858188      -0.80261710       0.00000000
Si       0.52926210      -3.57106122       1.34142442       0.00000000
Si      -3.14052371      -1.16167248      -1.92477554       0.00000000
Si       1.81708434       3.24787481       1.04249755       0.00000000
Si      -3.38782220       1.78605093       0.55020224       0.00000000
