10
Lattice="10.86 0.0 0.0 0.0 10.86 0.0 0.0 0.0 10.86" Properties=species:S:1:pos:R:3:initial_magmoms:R:1 pbc="T T T"
Si      -1.44623706      -1.01028408       1.29676002       0.00000000
Si       1.57814262      -1.13574966      -1.42955610       0.00000000
Si      -1.13685738       1.57925034      -1.42955610       0.00000000
Si       1.57814262       1.57925034       1.28544390       0.00000000
Si      -2.85322608      -2.38777734      -0.06751662       0.00000000
Si       0.22064262      -2.49324966      -2.78705610       0.00000000
Si      -2.49435738       0.22175034      -2.78705610       0.00000000
Si      -2.49435738       2.93675034      -0.07205610       0.00000000
Si       2.86390146       0.12881046       2.62052886       0.00000000
Si      -2.72011506       0.31551558       2.79566808       0.00000000
