10
Lattice="10.86 0.0 0.0 0.0 10.86 0.0 0.0 0.0 10.86" Properties=species:S:1:pos:R:3:initial_magmoms:R:1 pbc="T T T"
Si      -1.13174232      -1.45126524       1.20477582       0.00000000
Si      -1.13174232       1.26373476      -1.51022418       0.00000000
Si       1.58325768       1.26373476       1.20477582       0.00000000
Si       1.27387800      -1.32579966      -1.49890806       0.00000000
Si      -2.48924232      -0.09376524       2.56227582       0.00000000
Si      -2.48924232       2.62123476      -0.15272418       0.00000000
Si       0.22575768       2.62123476       2.56227582       0.00000000
Si      -2.48924232      -2.80876524      -0.15272418       0.00000000
Si      -2.48924232      -0.09376524      -2.86772418       0.00000000
Si       0.22575768       2.62123476      -2.86772418       0.00000000
