10
Lattice="10.86 0.0 0.0 0.0 10.86 0.0 0.0 0.0 10.86" Properties=species:S:1:pos:R:3:initial_magmoms:R:1 pbc="T T T"
Si       1.23579198       1.27631064       1.39502130       0.00000000
Si       1.23579198      -1.43868936      -1.31997870       0.00000000
Si      -1.48553940       1.05676488      -1.52836038       0.00000000
Si      -1.47920802      -1.43868936       1.39502130       0.00000000
Si      -2.43799398       2.40625020       0.25844628       0.00000000
Si       2.77780338       2.45659716       0.22197840       0.00000000
Si       2.58919776      -0.13363230      -2.72199384       0.00000000
Si       2.59329198      -0.08118936       2.75252130       0.00000000
Si      -0.12170802       2.63381064       2.75252130       0.00000000
Si       2.59329198      -2.79618936       0.03752130       0.00000000
