10
Lattice="10.86 0.0 0.0 0.0 10.86 0.0 0.0 0.0 10.86" Properties=species:S:1:pos:R:3:initial_magmoms:R:1 pbc="T T T"
Si       1.36159422      -1.30505706      -1.31298486       0.00000000
Si      -1.35340578      -1.30505706       1.40201514       0.00000000
Si       1.36159422       1.40994294       1.40201514       0.00000000
Si      -2.58919776       0.13363230       2.72199384       0.00000000
Si      -2.54072958       0.08326362      -2.77689114       0.00000000
Si       0.00409422      -2.66255706      -2.67048486       0.00000000
Si      -2.71090578      -2.66255706       0.04451514       0.00000000
Si       2.71909422      -2.66255706       0.04451514       0.00000000
Si       2.71909422       0.05244294      -2.67048486       0.00000000
Si       0.00409422      -2.66255706       2.75951514       0.00000000
