10
Lattice="10.86 0.0 0.0 0.0 10.86 0.0 0.0 0.0 10.86" Properties=species:S:1:pos:R:3:initial_magmoms:R:1 pbc="T T T"
Si       1.31091060       1.37118360      -1.28999424       0.00000000
Si      -0.96160956       1.30674036       1.66646700       0.00000000
Si      -1.19831412      -1.68869742      -1.33796286       0.00000000
Si      -2.52926142      -0.10720992      -2.59412820       0.00000000
Si      -2.52926142       2.60779008       0.12087180       0.00000000
Si       0.18573858       2.60779008      -2.59412820       0.00000000
Si      -2.52926142      -2.82220992       0.12087180       0.00000000
Si      -2.52926142      -0.10720992       2.83587180       0.00000000
Si       0.18573858      -2.82220992      -2.59412820       0.00000000
Si       0.18573858       2.60779008       2.83587180       0.00000000
