10
Lattice="16.28999089631971 0.0 0.0 0.0 16.28999089631971 0.0 0.0 0.0 34.48637585096406" Properties=species:S:1:pos:R:3:initial_magmoms:R:1 pbc="T T T"
Si      -0.72615607      -1.82975796       1.39625347       0.00000000
Si      -1.03690411      -0.26406090      -2.21769455       0.00000000
Si       2.01520332       0.96686037       1.16848463       0.00000000
Si      -1.70781428       1.95732495      -0.00221447       0.00000000
Si      -2.06158814      -0.46885878       2.72134837       0.00000000
Si       0.66371976       2.27683701       2.68353059       0.00000000
Si      -3.29578370       0.83482992       1.25488684       0.00000000
Si      -3.10867676      -1.33841898      -1.47082269       0.00000000
Si      -2.34470834      -3.00835738       0.16157949       0.00000000
Si      -0.63138085       1.79835084      -3.39188733       0.00000000
