10
Lattice="16.28999089631971 0.0 0.0 0.0 16.28999089631971 0.0 0.0 0.0 34.48637585096406" Properties=species:S:1:pos:R:3:initial_magmoms:R:1 pbc="T T T"
Si       1.35790182       1.35451839      -1.39338831       0.00000000
Si      -1.35786924      -1.36466218      -1.39331934       0.00000000
Si       1.45943739      -1.26735907       1.50208943       0.00000000
Si      -1.41887529       1.37540217       1.55037038       0.00000000
Si       2.69809641       2.71043283      -0.02200232       0.00000000
Si       2.70558981      -2.70578759      -0.02593377       0.00000000
Si      -2.72696229      -2.69174561      -0.02858922       0.00000000
Si      -2.71458189       2.71186635      -0.00544885       0.00000000
Si       0.00034209       2.70847803      -2.75384211       0.00000000
Si      -2.71251306      -0.00547670      -2.75146255       0.00000000
