10
Lattice="16.28999089631971 0.0 0.0 0.0 16.28999089631971 0.0 0.0 0.0 34.48637585096406" Properties=species:S:1:pos:R:3:initial_magmoms:R:1 pbc="T T T"
Si      -0.91832920       1.19878110      -1.84191836       0.00000000
Si      -0.30941552       1.76135625       1.80712159       0.00000000
Si      -0.80796119      -2.23868257       1.04848987       0.00000000
Si       2.09600172      -1.28837610      -1.34828010       0.00000000
Si       0.17692569       0.21331755       3.54671882       0.00000000
Si      -1.88060624      -0.57756195      -3.08284232       0.00000000
Si       3.49257600      -1.08960552       0.79832556       0.00000000
Si       2.14674507      -1.12619286       3.01011051       0.00000000
Si       0.98495856       2.30918895      -3.05294261       0.00000000
Si       0.92005920      -3.11340116       2.46860514       0.00000000
