10
Lattice="16.28999089631971 0.0 0.0 0.0 16.28999089631971 0.0 0.0 0.0 34.48637585096406" Properties=species:S:1:pos:R:3:initial_magmoms:R:1 pbc="T T T"
Si      -0.08148258      -0.68727510       2.25561716       0.00000000
Si       1.37057544      -1.29402873      -1.42663319       0.00000000
Si       1.01607246       2.13003153       0.25416473       0.00000000
Si      -2.28472137       0.11805363      -0.74787196       0.00000000
Si       2.00516868      -1.72659502       2.25927272       0.00000000
Si      -1.88810874      -1.28783853      -2.69138725       0.00000000
Si      -0.79006500       3.23187084       1.18343514       0.00000000
Si      -2.77900884       2.23645410       0.34493292       0.00000000
Si       0.40464360      -0.92536974      -3.49240275       0.00000000
Si       3.51430686      -0.20605221       1.18429729       0.00000000
