10
Lattice="16.28999089631971 0.0 0.0 0.0 16.28999089631971 0.0 0.0 0.0 34.48637585096406" Properties=species:S:1:pos:R:3:initial_magmoms:R:1 pbc="T T T"
Si      -0.16762410       2.24898111      -0.62889390       0.00000000
Si       0.77395419      -1.01395476      -2.02504112       0.00000000
Si       1.22326497       0.07690509       2.05983789       0.00000000
Si      -1.82737962      -1.54174587       0.26282082       0.00000000
Si      -0.24135264      -2.98216862       1.26527135       0.00000000
Si       1.02524373      -3.10771565      -0.86888473       0.00000000
Si      -1.18100871       1.99293489      -2.73083968       0.00000000
Si       2.79599931       0.18539649      -2.47015702       0.00000000
Si       3.40480548       0.83509056       1.36445422       0.00000000
Si      -0.71772111      -0.10963170      -3.76032755       0.00000000
