10
Lattice="16.28999089631971 0.0 0.0 0.0 16.28999089631971 0.0 0.0 0.0 34.48637585096406" Properties=species:S:1:pos:R:3:initial_magmoms:R:1 pbc="T T T"
Si       1.59309684       0.87861744      -1.61451507       0.00000000
Si       1.39657428       0.19877058       2.14660566       0.00000000
Si      -1.04756103      -1.83731342      -1.66800347       0.00000000
Si      -2.09600172       1.28837610       1.34828010       0.00000000
Si       2.03841657      -2.00115224       1.66107171       0.00000000
Si       2.87189442       2.38513293      -0.19046836       0.00000000
Si       0.29739024       2.21508162      -3.17033430       0.00000000
Si      -2.90396291      -0.95030647       2.39676997       0.00000000
Si      -3.01433092       2.48715720      -0.49363826       0.00000000
Si      -2.42057345      -0.50727712      -3.17209311       0.00000000
