10
Lattice="16.28999089631971 0.0 0.0 0.0 16.28999089631971 0.0 0.0 0.0 34.48637585096406" Properties=species:S:1:pos:R:3:initial_magmoms:R:1 pbc="T T T"
Si      -1.35731538      -1.35759231      -1.35724657       0.00000000
Si       1.35760860       1.35759231      -1.35714311       0.00000000
Si      -1.35788553       1.35788553       1.35724657       0.00000000
Si       1.36037790      -1.35912357       1.35976407       0.00000000
Si      -2.70097159      -0.00250866       2.72266641       0.00000000
Si      -2.71512598       2.71370223       0.00003449       0.00000000
Si       0.00027693      -2.71489140      -2.71483800       0.00000000
Si       2.71524978      -0.00004887      -2.71459659       0.00000000
Si       2.71440270      -2.71559187      -0.00089665       0.00000000
Si      -2.71515367       0.00009774      -2.71490697       0.00000000
