10
Lattice="16.28999089631971 0.0 0.0 0.0 16.28999089631971 0.0 0.0 0.0 34.48637585096406" Properties=species:S:1:pos:R:3:initial_magmoms:R:1 pbc="T T T"
Si       1.48053294       1.15277814      -1.46936184       0.00000000
Si      -0.62406990       1.89941400       1.30834486       0.00000000
Si       0.51569253      -0.76017285       2.25130636       0.00000000
Si      -1.27879758      -1.50651549      -1.42404671       0.00000000
Si      -1.47532014      -2.18636235       2.33707402       0.00000000
Si      -2.87189442      -2.38513293       0.19046836       0.00000000
Si       2.53550592      -2.03708079       1.92623760       0.00000000
Si      -2.64179817       2.72976417      -0.08994052       0.00000000
Si       3.11818293       2.24112933      -0.13646267       0.00000000
Si       1.56296034       3.17102769       1.54774941       0.00000000
