10
Lattice="16.28999089631971 0.0 0.0 0.0 16.28999089631971 0.0 0.0 0.0 34.48637585096406" Properties=species:S:1:pos:R:3:initial_magmoms:R:1 pbc="T T T"
Si       1.15538454      -1.63854594       1.30420649       0.00000000
Si      -1.11804786      -0.86542254      -1.94644663       0.00000000
Si       2.21845365       0.54828882      -1.06949209       0.00000000
Si      -2.16832932      -0.13911660       1.32358784       0.00000000
Si       0.14071302       2.81748582      -0.34058764       0.00000000
Si       0.63961056      -2.86216929      -1.58358078       0.00000000
Si      -1.22020245      -2.13762267       2.31386468       0.00000000
Si      -2.27656008       2.78058897      -0.43649430       0.00000000
Si      -2.30207022       2.14128792       1.81263941       0.00000000
Si      -2.72471427       1.15266411      -2.14326048       0.00000000
