10
Lattice="16.28999089631971 0.0 0.0 0.0 16.28999089631971 0.0 0.0 0.0 34.48637585096406" Properties=species:S:1:pos:R:3:initial_magmoms:R:1 pbc="T T T"
Si      -0.04228884       0.10665063      -2.32962496       0.00000000
Si      -1.97587926      -0.66463200       1.26747300       0.00000000
Si       0.79734663       1.95709689       1.34939198       0.00000000
Si       1.87813926      -1.86072525       0.02310588       0.00000000
Si      -0.64304775      -2.09104956       2.78010147       0.00000000
Si       2.10499380       0.63149814       2.79124058       0.00000000
Si       0.76219281      -3.42731663       1.37888130       0.00000000
Si       3.48384456      -0.71838900       1.34229813       0.00000000
Si      -0.99041571       2.10515670      -3.31990180       0.00000000
Si      -0.35168481      -2.35069587      -3.36263044       0.00000000
