10
Lattice="16.28999089631971 0.0 0.0 0.0 16.28999089631971 0.0 0.0 0.0 34.48637585096406" Properties=species:S:1:pos:R:3:initial_magmoms:R:1 pbc="T T T"
Si       0.04228884      -0.10665063       2.32962496       0.00000000
Si      -0.94812687       1.99850607      -0.99027684       0.00000000
Si       2.37558699       0.49907673      -1.00965819       0.00000000
Si      -0.30939597      -2.45734650      -1.03300548       0.00000000
Si       1.87214454      -1.69916103      -1.72838915       0.00000000
Si       1.22020245       2.13762267      -2.31386468       0.00000000
Si       1.92042810      -1.96737588       2.35273085       0.00000000
Si      -2.81856096       1.09475316      -2.15146825       0.00000000
Si      -1.70028504      -0.28527048      -3.72173728       0.00000000
Si      -1.93359042      -0.77128263       3.59709797       0.00000000
