10
Lattice="16.28999089631971 0.0 0.0 0.0 16.28999089631971 0.0 0.0 0.0 34.48637585096406" Properties=species:S:1:pos:R:3:initial_magmoms:R:1 pbc="T T T"
Si      -1.35760860      -1.35759231       1.35714311       0.00000000
Si       1.35764118      -1.35764118      -1.35745348       0.00000000
Si       1.35812988       1.35710361       1.35783284       0.00000000
Si      -1.35775521       1.35785295      -1.35762592       0.00000000
Si      -2.71290402      -0.00094482      -2.71470005       0.00000000
Si      -0.00026064      -2.71321353      -2.71473454       0.00000000
Si      -0.00040725       2.71593396      -2.71390686       0.00000000
Si      -2.71549413       0.00029322       2.71438967       0.00000000
Si       2.71489140      -2.71513575       0.00003449       0.00000000
Si      -2.71492398      -2.71518462      -0.00010346       0.00000000
