10
Lattice="16.28999089631971 0.0 0.0 0.0 16.28999089631971 0.0 0.0 0.0 34.48637585096406" Properties=species:S:1:pos:R:3:initial_magmoms:R:1 pbc="T T T"
Si       1.46398230      -1.48814006      -1.15798418       0.00000000
Si       1.22668587       1.98720830       0.54150538       0.00000000
Si      -1.72802039       0.87471859      -1.42011526       0.00000000
Si      -0.77996520      -1.31375561       1.89926924       0.00000000
Si      -0.74313351       3.32671871       1.07811368       0.00000000
Si      -3.58019081       0.22099112       0.04276313       0.00000000
Si      -2.65213322       1.81119485       1.59954798       0.00000000
Si       2.23772472      -2.78892914       0.73676735       0.00000000
Si       2.57251680       2.02379564      -1.67027958       0.00000000
Si      -1.86025284       0.31348085       3.25420522       0.00000000
