10
Lattice="16.28999089631971 0.0 0.0 0.0 16.28999089631971 0.0 0.0 0.0 34.48637585096406" Properties=species:S:1:pos:R:3:initial_magmoms:R:1 pbc="T T T"
Si      -1.78989633      -0.14076189      -1.51250432       0.00000000
Si       0.19570806       2.18215953       0.85888367       0.00000000
Si      -0.54872865      -1.29143862       1.93330731       0.00000000
Si       2.30659884      -0.51585543      -1.55799187       0.00000000
Si       0.63853542      -1.10594439      -3.17430024       0.00000000
Si      -1.43037603       1.90037511      -2.73694378       0.00000000
Si      -0.57803436       3.48294861      -1.03586785       0.00000000
Si      -1.09058292       2.30496984       2.86571598       0.00000000
Si      -3.81118559       0.55175859      -0.53150432       0.00000000
Si      -2.13547239      -2.97461916       1.31596635       0.00000000
