10
Lattice="16.28999089631971 0.0 0.0 0.0 16.28999089631971 0.0 0.0 0.0 34.48637585096406" Properties=species:S:1:pos:R:3:initial_magmoms:R:1 pbc="T T T"
Si      -0.89889590      -1.57820193      -1.46874108       0.00000000
Si       1.72802039      -0.87471859       1.42011526       0.00000000
Si      -1.85217041      -0.65372747       1.46287839       0.00000000
Si       0.80796119       2.23868257      -1.04848987       0.00000000
Si      -0.92411282       0.93647626       3.01966324       0.00000000
Si      -2.36020664       0.15206715      -2.58658309       0.00000000
Si       0.98488688       2.45200012       2.49822895       0.00000000
Si       2.95470626       1.11248971       1.96162064       0.00000000
Si       2.90396291       0.95030647      -2.39676997       0.00000000
Si      -1.54152011      -3.58778520      -0.17463910       0.00000000
