10
Lattice="16.28999089631971 0.0 0.0 0.0 16.28999089631971 0.0 0.0 0.0 34.48637585096406" Properties=species:S:1:pos:R:3:initial_magmoms:R:1 pbc="T T T"
Si       1.35711990       1.35581670       1.35738451       0.00000000
Si       1.35734796      -1.35819504      -1.35686722       0.00000000
Si      -1.35769005       1.35726651      -1.35766040       0.00000000
Si      -1.35769005      -1.35799956       1.35717759       0.00000000
Si      -2.71267596      -0.00171045      -2.71459659       0.00000000
Si      -0.00057015      -2.71459818      -2.71369995       0.00000000
Si       0.00006516       2.71471944      -2.71411378       0.00000000
Si      -2.71466334       2.71433607       0.00062076       0.00000000
Si       2.71492398       2.71442213      -0.00006897       0.00000000
Si       2.71474479      -2.71516833       0.00020692       0.00000000
