10
Lattice="16.28999089631971 0.0 0.0 0.0 16.28999089631971 0.0 0.0 0.0 34.48637585096406" Properties=species:S:1:pos:R:3:initial_magmoms:R:1 pbc="T T T"
Si      -0.79188038       1.49771400      -1.65465724       0.00000000
Si       1.08028764      -1.62723646      -1.35493598       0.00000000
Si      -1.83354443      -0.54329986       1.42252931       0.00000000
Si       1.06041384       0.74783155       2.00810830       0.00000000
Si      -1.09438568       1.08387796       2.99341910       0.00000000
Si       1.86360858      -1.38428740       2.57772009       0.00000000
Si      -1.71993797      -0.09248973      -3.21144209       0.00000000
Si       1.86025284      -0.31348085      -3.25420522       0.00000000
Si       0.48411274      -3.25117027       1.88081902       0.00000000
Si       1.11711933       3.01323786      -2.17609153       0.00000000
