10
Lattice="16.28999089631971 0.0 0.0 0.0 16.28999089631971 0.0 0.0 0.0 34.48637585096406" Properties=species:S:1:pos:R:3:initial_magmoms:R:1 pbc="T T T"
Si       1.73069847      -0.60908310       1.41404566       0.00000000
Si      -0.64184229       2.19992282       0.48553396       0.00000000
Si      -1.75037679      -1.31201289       0.99782936       0.00000000
Si       1.12003524      -1.21445208      -1.90299377       0.00000000
Si      -2.03841657       2.00115224      -1.66107171       0.00000000
Si       2.28077919      -2.84009634      -0.09297532       0.00000000
Si       0.95081472      -1.40186853       3.47747014       0.00000000
Si      -3.21435909       0.17612717       2.15581353       0.00000000
Si       1.34917038       3.62611232       0.39976629       0.00000000
Si      -2.60271846      -2.89458639      -0.70324657       0.00000000
