10
Lattice="16.28999089631971 0.0 0.0 0.0 16.28999089631971 0.0 0.0 0.0 34.48637585096406" Properties=species:S:1:pos:R:3:initial_magmoms:R:1 pbc="T T T"
Si      -2.29416957      -0.21204693       0.41607836       0.00000000
Si       0.21577734      -0.45629919      -2.30365671       0.00000000
Si       0.96448203      -1.41885900       1.63631048       0.00000000
Si       0.37980135       2.25398214       0.68141668       0.00000000
Si       2.68258833       1.95238908       1.04642069       0.00000000
Si      -2.78322795       2.10944097       0.04348734       0.00000000
Si       2.52165942      -0.91662201      -2.40197742       0.00000000
Si      -1.47825234      -2.14291692      -2.60479191       0.00000000
Si       3.52339668       0.66209076      -0.84508911       0.00000000
Si      -0.88679502       2.37952917       2.81557276       0.00000000
