10
Lattice="16.28999089631971 0.0 0.0 0.0 16.28999089631971 0.0 0.0 0.0 34.48637585096406" Properties=species:S:1:pos:R:3:initial_magmoms:R:1 pbc="T T T"
Si       1.35464382       1.35586557       1.36747868       0.00000000
Si       1.43192358      -1.30685059      -1.34396930       0.00000000
Si      -1.35987291      -1.36220890       1.36827187       0.00000000
Si      -1.32165657       1.36669842      -1.45216002       0.00000000
Si      -0.13616811      -2.52164639      -2.77186957       0.00000000
Si      -2.70050733       2.71658556      -0.00321758       0.00000000
Si      -2.71063971      -2.71141253       0.00583165       0.00000000
Si       2.72820033       2.70404226      -0.01512918       0.00000000
Si       0.00001629       2.71336014       2.72765659       0.00000000
Si      -2.71435383      -0.00361638       2.72672546       0.00000000
