10
Lattice="16.28999089631971 0.0 0.0 0.0 16.28999089631971 0.0 0.0 0.0 34.48637585096406" Properties=species:S:1:pos:R:3:initial_magmoms:R:1 pbc="T T T"
Si      -1.35679410       1.35630251      -1.35897089       0.00000000
Si       1.35852084      -1.35782882      -1.35800527       0.00000000
Si      -1.36699164      -1.34277686       1.36790286       0.00000000
Si       1.36146933       1.35978857       1.38455979       0.00000000
Si      -2.71075374      -2.71735964      -0.00106908       0.00000000
Si      -2.71394658      -0.00036369      -2.71652783       0.00000000
Si       0.00078192       2.71492272      -2.71645886       0.00000000
Si       0.00105885      -2.71542113      -2.71632091       0.00000000
Si      -2.71467963       2.71752912       0.00044832       0.00000000
Si       2.71606428      -0.00057577      -2.71621745       0.00000000
