10
Lattice="16.28999089631971 0.0 0.0 0.0 16.28999089631971 0.0 0.0 0.0 34.48637585096406" Properties=species:S:1:pos:R:3:initial_magmoms:R:1 pbc="T T T"
Si       1.89562820      -0.40401318      -1.36169531       0.00000000
Si      -1.81449164       0.88320145      -1.25720153       0.00000000
Si       0.26997091       1.66978039       1.67924604       0.00000000
Si      -0.87822389      -2.14659913       0.66555294       0.00000000
Si      -1.80180173       0.59542231       2.42611790       0.00000000
Si       0.39555867      -2.19656056       2.59617031       0.00000000
Si      -3.40387436       0.58038664       0.42190656       0.00000000
Si      -1.94152106      -0.64797547      -3.06994441       0.00000000
Si      -3.18852056      -1.70010652       0.92764954       0.00000000
Si       0.67549417       3.73219213       0.50505326       0.00000000
