10
Lattice="16.28999089631971 0.0 0.0 0.0 16.28999089631971 0.0 0.0 0.0 34.48637585096406" Properties=species:S:1:pos:R:3:initial_magmoms:R:1 pbc="T T T"
Si       2.22079941      -0.77067990       0.39035151       0.00000000
Si       0.30688731       1.02765465      -2.17716061       0.00000000
Si      -2.00406096      -1.41204978      -0.20633210       0.00000000
Si      -0.05357781       1.25178876       2.26206612       0.00000000
Si       2.48642415       0.61717923       2.27827472       0.00000000
Si       0.86389128      -3.21285064      -1.13718888       0.00000000
Si      -1.33167492      -2.37791483      -2.26396287       0.00000000
Si      -2.68882740       0.63574983       2.29658700       0.00000000
Si       1.87150923      -3.02955230       1.11425543       0.00000000
Si      -0.34601589      -0.80873334      -3.67738777       0.00000000
