10
Lattice="16.28999089631971 0.0 0.0 0.0 16.28999089631971 0.0 0.0 0.0 34.48637585096406" Properties=species:S:1:pos:R:3:initial_magmoms:R:1 pbc="T T T"
Si      -1.48584348      -1.72094958      -0.71579962       0.00000000
Si       2.20345056      -0.50271917       0.78604840       0.00000000
Si       0.15244182       1.23733790      -2.05514774       0.00000000
Si      -1.26671040       1.35197063       1.54385245       0.00000000
Si      -0.53232462       3.28513751       0.44777135       0.00000000
Si       1.80445959      -2.79387414       1.11532450       0.00000000
Si      -1.86737157       2.51424584      -1.73007898       0.00000000
Si      -2.26572723      -2.51373501       1.34762486       0.00000000
Si      -0.30077856       0.98331164       3.60962200       0.00000000
Si      -0.19168443      -2.97211932       2.40077040       0.00000000
