10
Lattice="16.28999089631971 0.0 0.0 0.0 16.28999089631971 0.0 0.0 0.0 34.48637585096406" Properties=species:S:1:pos:R:3:initial_magmoms:R:1 pbc="T T T"
Si      -2.13216552      -0.85538790      -0.25375090       0.00000000
Si       1.49952708      -1.30961989      -1.23778569       0.00000000
Si       0.01156590       0.23258862       2.35717959       0.00000000
Si       0.07064973       2.14889535      -1.00338167       0.00000000
Si       1.94145849       3.02405931       0.13694548       0.00000000
Si      -3.50274096       0.43864083       1.17288230       0.00000000
Si       3.38138046       0.11611512      -1.56802741       0.00000000
Si      -0.53222688       2.47288716       2.74504808       0.00000000
Si      -2.48666850       2.56867236       1.42704703       0.00000000
Si       0.37206360      -2.34141871      -3.07732450       0.00000000
