10
Lattice="16.28999089631971 0.0 0.0 0.0 16.28999089631971 0.0 0.0 0.0 34.48637585096406" Properties=species:S:1:pos:R:3:initial_magmoms:R:1 pbc="T T T"
Si       1.86439050      -0.35269479       1.28710124       0.00000000
Si      -0.54379278       2.24029854       0.38786849       0.00000000
Si      -0.01156590      -0.23258862      -2.35717959       0.00000000
Si      -1.50913818      -1.52054281       1.07497542       0.00000000
Si      -2.49823440       2.33608374      -0.93013256       0.00000000
Si      -2.14373142      -1.08797652      -2.61093049       0.00000000
Si      -0.83057823       2.29073238       2.67314395       0.00000000
Si       1.43723412       1.14867306       3.16233346       0.00000000
Si       1.98915561      -2.76389661       1.38255958       0.00000000
Si      -3.51430686       0.20605221      -1.18429729       0.00000000
