10
Lattice="16.28999089631971 0.0 0.0 0.0 16.28999089631971 0.0 0.0 0.0 34.48637585096406" Properties=species:S:1:pos:R:3:initial_magmoms:R:1 pbc="T T T"
Si      -1.35265385      -1.36935369      -1.33818594       0.00000000
Si      -1.35695441       1.35858600       1.36321271       0.00000000
Si       1.35887270      -1.35816246       1.36252298       0.00000000
Si       1.37265404       1.37634210      -1.37600372       0.00000000
Si      -0.01722179      -2.73025287      -2.66328084       0.00000000
Si      -2.58684941      -0.06566499      -2.80464747       0.00000000
Si      -2.71053938      -2.71345788       0.00662139       0.00000000
Si      -2.71361819       2.71520091       0.00441426       0.00000000
Si       2.71599260       2.71420722       0.00627652       0.00000000
Si      -2.71241273       0.00014661       2.71976955       0.00000000
