10
Lattice="16.28999089631971 0.0 0.0 0.0 16.28999089631971 0.0 0.0 0.0 34.48637585096406" Properties=species:S:1:pos:R:3:initial_magmoms:R:1 pbc="T T T"
Si      -0.37740672       2.32402914       0.17474256       0.00000000
Si       2.31151842      -0.57153465       0.11256359       0.00000000
Si      -1.05386526      -1.57094244       1.45953321       0.00000000
Si      -0.59375421      -0.39452751      -2.39532155       0.00000000
Si      -0.65238192       2.44705122       2.50854038       0.00000000
Si       0.99022023       0.88418862       3.32307455       0.00000000
Si       2.91651273       0.73300113       1.96465544       0.00000000
Si      -0.30597507      -3.55483638       0.48608574       0.00000000
Si       1.68995718       3.13289280      -0.56419742       0.00000000
Si      -3.22460550      -0.74924226       1.44128991       0.00000000
