10
Lattice="16.28999089631971 0.0 0.0 0.0 16.28999089631971 0.0 0.0 0.0 34.48637585096406" Properties=species:S:1:pos:R:3:initial_magmoms:R:1 pbc="T T T"
Si       0.38099052       0.25949970      -2.36890497       0.00000000
Si       0.79298091       2.34484776      -0.06793820       0.00000000
Si       1.86277779      -1.55369133       0.64089517       0.00000000
Si      -2.29084641      -1.08665703      -0.65213773       0.00000000
Si      -1.98101061      -0.07825716       2.36344719       0.00000000
Si       2.34642789       1.78323372      -1.92134053       0.00000000
Si      -1.31973435      -3.04867350      -1.49953743       0.00000000
Si       0.65806713      -2.91853269       2.10062637       0.00000000
Si      -1.25830476       1.75888017      -3.01659395       0.00000000
Si      -3.10606317       0.60172002      -2.11856823       0.00000000
