10
Lattice="16.28999089631971 0.0 0.0 0.0 16.28999089631971 0.0 0.0 0.0 34.48637585096406" Properties=species:S:1:pos:R:3:initial_magmoms:R:1 pbc="T T T"
Si       1.63929528      -1.49938047       0.64768899       0.00000000
Si      -1.84775841      -1.15716015       0.89802573       0.00000000
Si       0.33298389      -0.32798286      -2.32727989       0.00000000
Si       0.67064301       2.00831265       1.22019763       0.00000000
Si      -2.96357454      -1.54940706      -1.14298259       0.00000000
Si       2.05128567       0.58596759       2.94865576       0.00000000
Si       1.25830476      -1.75888017       3.01659395       0.00000000
Si      -1.48998114      -1.74975777      -2.91592817       0.00000000
Si       1.09481832      -3.50735103      -0.54636796       0.00000000
Si       2.31036183       2.94137127      -0.44590909       0.00000000
