10
Lattice="16.28999089631971 0.0 0.0 0.0 16.28999089631971 0.0 0.0 0.0 34.48637585096406" Properties=species:S:1:pos:R:3:initial_magmoms:R:1 pbc="T T T"
Si      -1.35985662      -1.35203742       1.35103902       0.00000000
Si       1.35523026      -1.35428544      -1.35786732       0.00000000
Si      -1.36099692       1.35839052      -1.35800527       0.00000000
Si       1.34376210       1.37458278       1.36897194       0.00000000
Si      -2.51256960       0.21530493       2.61762085       0.00000000
Si       2.59893918      -0.05502762       2.71735550       0.00000000
Si       2.71181259       0.00193851      -2.71525183       0.00000000
Si      -0.00337203      -2.71259451      -2.71518286       0.00000000
Si       2.71075374       2.71735964       0.00106908       0.00000000
Si       2.71471221      -2.71521720       0.00110356       0.00000000
