10
Lattice="16.28999089631971 0.0 0.0 0.0 16.28999089631971 0.0 0.0 0.0 34.48637585096406" Properties=species:S:1:pos:R:3:initial_magmoms:R:1 pbc="T T T"
Si      -0.12054600       1.92969778       1.29286047       0.00000000
Si      -1.42315956      -1.24973622      -1.35448765       0.00000000
Si       1.39634622       1.39312080      -1.31841489       0.00000000
Si      -0.02992473      -1.58653197       1.78239485       0.00000000
Si      -2.31611220       2.76463359       0.16608648       0.00000000
Si       2.62992276       2.58420717       0.29813489       0.00000000
Si       0.04847904      -2.55855627      -2.69638778       0.00000000
Si      -2.81940804      -2.53837296       0.09256148       0.00000000
Si      -2.67833664       0.17987418      -2.70287122       0.00000000
Si       2.77591374       0.14419908      -2.70659575       0.00000000
