10
Lattice="16.28999089631971 0.0 0.0 0.0 16.28999089631971 0.0 0.0 0.0 34.48637585096406" Properties=species:S:1:pos:R:3:initial_magmoms:R:1 pbc="T T T"
Si      -0.14061528      -1.96175583       1.24940761       0.00000000
Si      -0.47926809       1.69634286       1.57995971       0.00000000
Si      -2.07404280       0.45838431      -1.05314553       0.00000000
Si       1.99614402       0.17824518      -1.28544589       0.00000000
Si      -2.77635357       1.78321743       0.88302415       0.00000000
Si      -1.29415905       1.25116974      -3.11657001       0.00000000
Si       2.08121040      -2.34458712       1.94258415       0.00000000
Si       1.51984071      -1.03493628      -3.27303479       0.00000000
Si       2.39513499       2.46940014      -1.61472199       0.00000000
Si       0.19168443       2.97211932      -2.40077040       0.00000000
