10
Lattice="16.28999089631971 0.0 0.0 0.0 16.28999089631971 0.0 0.0 0.0 34.48637585096406" Properties=species:S:1:pos:R:3:initial_magmoms:R:1 pbc="T T T"
Si      -1.13819859      -0.01396053       2.00903943       0.00000000
Si      -0.06833655       2.30878170      -0.36703870       0.00000000
Si       2.23137162      -0.68440806       0.15177462       0.00000000
Si      -0.97036272      -1.30590414      -1.69262676       0.00000000
Si      -2.44996713       2.55355524       0.00586269       0.00000000
Si       0.87881292      -1.29987684      -3.19019847       0.00000000
Si      -3.23988552       0.71586405       1.33065756       0.00000000
Si      -0.36777933       2.02406508       3.03390612       0.00000000
Si       1.19206962       2.59229286      -2.33966050       0.00000000
Si       0.97221978       3.31819385       1.56713077       0.00000000
