10
Lattice="16.28999089631971 0.0 0.0 0.0 16.28999089631971 0.0 0.0 0.0 34.48637585096406" Properties=species:S:1:pos:R:3:initial_magmoms:R:1 pbc="T T T"
Si       1.35843939      -1.35286821       1.35517738       0.00000000
Si      -1.35786924      -1.35469269      -1.35793629       0.00000000
Si       1.35728280       1.35971001      -1.35779835       0.00000000
Si      -1.35812988       1.35930276       1.36079867       0.00000000
Si       2.69579952      -0.01334151       2.72859807       0.00000000
Si       2.71259451      -2.71228989      -0.00037935       0.00000000
Si      -0.00115659      -2.71272972      -2.71445865       0.00000000
Si      -2.71544526      -2.71331290      -0.00044832       0.00000000
Si      -2.71485882       0.00255753      -2.71528632       0.00000000
Si       2.71251306       2.71777473      -0.00055178       0.00000000
