10
Lattice="16.28999089631971 0.0 0.0 0.0 16.28999089631971 0.0 0.0 0.0 34.48637585096406" Properties=species:S:1:pos:R:3:initial_magmoms:R:1 pbc="T T T"
Si      -0.82230291      -0.59194602       2.06004481       0.00000000
Si      -1.38491064       1.85227074      -0.27423581       0.00000000
Si       2.16215608       0.76105251      -0.42356190       0.00000000
Si      -0.87762375      -1.61096697      -1.45167032       0.00000000
Si       1.73655051       2.01808665      -2.35307571       0.00000000
Si      -2.84801328      -2.31858828      -0.23650770       0.00000000
Si       0.07918569       3.44777850      -1.40573444       0.00000000
Si      -3.27516966      -0.81722043       1.63872452       0.00000000
Si      -0.35170110      -2.88704412       2.38518255       0.00000000
Si      -0.99033426      -0.66932352      -3.60134527       0.00000000
