10
Lattice="16.28999089631971 0.0 0.0 0.0 16.28999089631971 0.0 0.0 0.0 34.48637585096406" Properties=species:S:1:pos:R:3:initial_magmoms:R:1 pbc="T T T"
Si       2.11463163      -0.89536356       0.40569795       0.00000000
Si      -0.25164792       2.21164443      -0.75735572       0.00000000
Si      -0.84595599      -1.44925614      -1.68169457       0.00000000
Si      -1.06380216       0.04064355       2.18874804       0.00000000
Si      -2.20946157       2.06967708      -2.04897468       0.00000000
Si       1.70910837      -2.95777530       1.57989073       0.00000000
Si      -0.02365308      -0.85731012      -3.74173938       0.00000000
Si       3.87624527       0.13918176      -0.78249631       0.00000000
Si      -0.37535418      -3.74435424      -1.35655684       0.00000000
Si       1.03819821      -0.73638945       3.79537080       0.00000000
