10
Lattice="16.28999089631971 0.0 0.0 0.0 16.28999089631971 0.0 0.0 0.0 34.48637585096406" Properties=species:S:1:pos:R:3:initial_magmoms:R:1 pbc="T T T"
Si      -1.20471066      -1.36484136       1.45973121       0.00000000
Si       1.41201720       1.28567196       1.52383452       0.00000000
Si      -1.86277779       1.55369133      -0.64089517       0.00000000
Si       1.08580995      -2.19572910      -1.32624330       0.00000000
Si      -2.47860495      -2.72391606      -0.05066051       0.00000000
Si       2.44504755       2.06681004      -2.03649060       0.00000000
Si      -1.48178727       1.81319103      -3.00980013       0.00000000
Si       3.19227378       2.22962859       0.31860536       0.00000000
Si      -2.57456934       0.01042560       2.98260903       0.00000000
Si       0.13041774      -2.67963984       2.96293454       0.00000000
