10
Lattice="16.28999089631971 0.0 0.0 0.0 16.28999089631971 0.0 0.0 0.0 34.48637585096406" Properties=species:S:1:pos:R:3:initial_magmoms:R:1 pbc="T T T"
Si       1.35896067      -1.35584928       1.35548776       0.00000000
Si      -1.35500220       1.35627282       1.35979856       0.00000000
Si      -1.35783666      -1.35674523      -1.35652235       0.00000000
Si       1.35710361       1.35822762      -1.35638441       0.00000000
Si       2.71220355      -2.71375110       0.00068973       0.00000000
Si      -0.00074934      -2.71425609      -2.71401032       0.00000000
Si       2.70875007      -0.02393001       2.71963161       0.00000000
Si       2.71332756       2.71528236       0.00148291       0.00000000
Si      -2.71508688       0.00102627      -2.71387238       0.00000000
Si      -0.00026064       2.71536381      -2.71373443       0.00000000
