10
Lattice="16.28999089631971 0.0 0.0 0.0 16.28999089631971 0.0 0.0 0.0 34.48637585096406" Properties=species:S:1:pos:R:3:initial_magmoms:R:1 pbc="T T T"
Si       1.34978940       1.33191927       1.36414385       0.00000000
Si       1.35324288      -1.35790182      -1.35479803       0.00000000
Si      -1.35896067       1.35584928      -1.35548776       0.00000000
Si      -1.36223496      -1.34431596       1.37642100       0.00000000
Si      -0.05545116       2.55992463       2.77229233       0.00000000
Si       2.71318096      -0.00089595      -2.71204460       0.00000000
Si      -0.00185706       2.71407690      -2.71187217       0.00000000
Si      -2.71396287       2.71212210       0.00431080       0.00000000
Si      -0.00198738      -2.71596654      -2.71204460       0.00000000
Si      -2.71679733      -0.00089595      -2.71201011       0.00000000
