10
Lattice="16.28999089631971 0.0 0.0 0.0 16.28999089631971 0.0 0.0 0.0 34.48637585096406" Properties=species:S:1:pos:R:3:initial_magmoms:R:1 pbc="T T T"
Si       1.96139745      -1.27011501       0.52574509       0.00000000
Si       0.29116746       1.18322415      -2.10260102       0.00000000
Si      -1.55344698       0.56161404       1.85340233       0.00000000
Si      -1.96543737      -1.52373402      -0.44756444       0.00000000
Si      -2.34642789      -1.78323372       1.92134053       0.00000000
Si      -1.29437082       2.91701772      -1.54116251       0.00000000
Si      -2.93408964       1.98395910       0.12494421       0.00000000
Si      -3.60473265      -0.02435355      -1.09525342       0.00000000
Si       2.33621406       2.30786946      -2.03021408       0.00000000
Si       1.41431409      -3.36165327      -1.71011136       0.00000000
