10
Lattice="16.28999089631971 0.0 0.0 0.0 16.28999089631971 0.0 0.0 0.0 34.48637585096406" Properties=species:S:1:pos:R:3:initial_magmoms:R:1 pbc="T T T"
Si       0.75486231      -1.89100836       1.36881330       0.00000000
Si      -0.44388621      -0.76159008      -2.30149238       0.00000000
Si      -1.95484887       0.81746478       1.36280577       0.00000000
Si       1.79826939       1.87051554       0.12659611       0.00000000
Si       2.11005999      -0.55389258       2.75664241       0.00000000
Si      -0.62380926       2.17877121       2.75809083       0.00000000
Si       3.47295605       0.79939917       1.37708659       0.00000000
Si       0.74261223       3.51774782       1.40391011       0.00000000
Si       2.03792787      -3.37445721      -0.06882450       0.00000000
Si      -3.30996510       2.22741315      -0.02086427       0.00000000
