10
Lattice="16.28999089631971 0.0 0.0 0.0 16.28999089631971 0.0 0.0 0.0 34.48637585096406" Properties=species:S:1:pos:R:3:initial_magmoms:R:1 pbc="T T T"
Si       1.39722981      -1.19407329      -1.45760198       0.00000000
Si       1.62496075       1.15898463       1.32579497       0.00000000
Si      -0.89106300      -1.90687482       1.19736764       0.00000000
Si      -1.29933927       1.49592699      -1.44587660       0.00000000
Si       0.01598049       2.20566600       2.67669604       0.00000000
Si       2.72416760      -2.53920375      -0.05576450       0.00000000
Si       0.04724100      -2.55663405      -2.81043428       0.00000000
Si      -2.67890679       2.74484871      -0.05769574       0.00000000
Si      -2.72412783      -2.71039536      -0.04203892       0.00000000
Si      -2.66769927       0.15786639      -2.81036531       0.00000000
