10
Lattice="16.28999089631971 0.0 0.0 0.0 16.28999089631971 0.0 0.0 0.0 34.48637585096406" Properties=species:S:1:pos:R:3:initial_magmoms:R:1 pbc="T T T"
Si       1.12674672       1.60881669       1.34714205       0.00000000
Si       1.27659843      -1.91896200       0.60361537       0.00000000
Si      -2.27112248      -0.37748817       0.61351297       0.00000000
Si       0.15400566      -0.73738314      -2.26644589       0.00000000
Si      -0.97694388      -2.79554319      -1.71393935       0.00000000
Si       3.21132915       1.24320393       0.42011327       0.00000000
Si      -1.84551691      -1.63452231       2.54302678       0.00000000
Si       3.26554227      -0.92354526       1.44211758       0.00000000
Si      -3.06337034      -1.75019760      -1.15046614       0.00000000
Si      -0.79739550       0.97578729      -3.55775447       0.00000000
