10
Lattice="16.28999089631971 0.0 0.0 0.0 16.28999089631971 0.0 0.0 0.0 34.48637585096406" Properties=species:S:1:pos:R:3:initial_magmoms:R:1 pbc="T T T"
Si      -0.10933848       1.63466892       1.64365608       0.00000000
Si      -2.04504660      -1.12464531      -0.07238694       0.00000000
Si       0.06559741       1.19488779      -2.03893914       0.00000000
Si       2.02363244      -1.18982160       0.34155326       0.00000000
Si       2.84316605      -0.65474397      -1.78063604       0.00000000
Si       2.35410767       1.66674393      -2.15322705       0.00000000
Si      -1.86631272      -2.34067752      -2.17516040       0.00000000
Si      -3.63058488       0.60914826       0.48905157       0.00000000
Si      -2.41963515       2.08116153       1.90575268       0.00000000
Si       1.49624369      -3.38312349       1.06804366       0.00000000
