10
Lattice="16.28999089631971 0.0 0.0 0.0 16.28999089631971 0.0 0.0 0.0 34.48637585096406" Properties=species:S:1:pos:R:3:initial_magmoms:R:1 pbc="T T T"
Si      -1.86952511       1.47201327      -0.13217566       0.00000000
Si       0.50775930       0.22493232      -2.34546357       0.00000000
Si       1.97721504       0.76590693       1.15675543       0.00000000
Si      -0.86934029      -1.99726803       1.12046539       0.00000000
Si       0.49677984       2.02685067       2.51854040       0.00000000
Si      -2.24899284      -0.72055557       2.53274190       0.00000000
Si      -0.73392640       3.41342289       0.92838307       0.00000000
Si      -2.61675134       1.30919472      -2.48727163       0.00000000
Si      -3.64978169       0.52805664       1.07305350       0.00000000
Si      -0.87436738       0.64337355       3.88820897       0.00000000
