10
Lattice="16.28999089631971 0.0 0.0 0.0 16.28999089631971 0.0 0.0 0.0 34.48637585096406" Properties=species:S:1:pos:R:3:initial_magmoms:R:1 pbc="T T T"
Si      -1.35724623       1.35863487       1.36831670       0.00000000
Si       1.36081936      -1.35863487       1.36590265       0.00000000
Si      -1.37462546      -1.36392912      -1.35546707       0.00000000
Si       1.37114722       1.38347712      -1.36966857       0.00000000
Si      -2.70328219       2.70524772       0.01031143       0.00000000
Si       0.00502709      -2.64064158      -2.76774358       0.00000000
Si      -2.71435939      -2.71538010       0.00755252       0.00000000
Si       2.71518625       2.71456560       0.01082873       0.00000000
Si       2.71525141      -2.71637379       0.00941479       0.00000000
Si      -2.71281184      -0.00027693       2.72342511       0.00000000
