10
Lattice="16.28999089631971 0.0 0.0 0.0 16.28999089631971 0.0 0.0 0.0 34.48637585096406" Properties=species:S:1:pos:R:3:initial_magmoms:R:1 pbc="T T T"
Si      -1.35701239       1.35650088      -1.35700516       0.00000000
Si       1.35760860      -1.35713619      -1.35745348       0.00000000
Si       1.35783666       1.35754344       1.35714311       0.00000000
Si      -1.35737077      -1.35887922       1.35735003       0.00000000
Si      -2.71560579       0.00133578      -2.71211357       0.00000000
Si      -2.71175462      -0.00068418       2.71604502       0.00000000
Si       0.00285075       2.71383255      -2.71463108       0.00000000
Si      -2.71417079       2.71437012       0.00051730       0.00000000
Si       2.71495656       0.00094482      -2.71373443       0.00000000
Si       2.71244790       0.00166158       2.71656232       0.00000000
