10
Lattice="16.28999089631971 0.0 0.0 0.0 16.28999089631971 0.0 0.0 0.0 34.48637585096406" Properties=species:S:1:pos:R:3:initial_magmoms:R:1 pbc="T T T"
Si       1.36056035       1.34995230      -1.35159080       0.00000000
Si      -1.39722981       1.19407329       1.45760198       0.00000000
Si      -1.34998881      -1.36256076      -1.35283231       0.00000000
Si       1.32693779      -1.34513046       1.40183748       0.00000000
Si      -2.28829281      -0.71280153       2.65496961       0.00000000
Si      -0.47374578      -2.42098722       2.64183030       0.00000000
Si       0.22773094       2.35305792       2.78339695       0.00000000
Si      -2.69656908       2.69000028       0.01172537       0.00000000
Si       2.70217217      -2.70607851       0.00565577       0.00000000
Si       0.00492447       2.71059084      -2.71132038       0.00000000
