10
Lattice="16.28999089631971 0.0 0.0 0.0 16.28999089631971 0.0 0.0 0.0 34.48637585096406" Properties=species:S:1:pos:R:3:initial_magmoms:R:1 pbc="T T T"
Si       1.78989633       0.14076189       1.51250432       0.00000000
Si      -2.02128926       0.69252048       0.98100000       0.00000000
Si       0.35952030       2.04113700      -1.22443946       0.00000000
Si       0.14230944      -2.11493070      -1.69169563       0.00000000
Si       2.42843175      -0.96518250      -1.66179592       0.00000000
Si       1.64191797       0.93607227      -2.89209807       0.00000000
Si      -2.09263783      -2.85109209      -0.28461622       0.00000000
Si      -3.13791731      -1.33587774       1.20881712       0.00000000
Si      -1.97153309      -1.41235929      -2.74670343       0.00000000
Si       1.24116768      -1.15067673       3.44581163       0.00000000
