10
Lattice="16.28999089631971 0.0 0.0 0.0 16.28999089631971 0.0 0.0 0.0 34.48637585096406" Properties=species:S:1:pos:R:3:initial_magmoms:R:1 pbc="T T T"
Si       0.95140116      -1.71317043       1.29130858       0.00000000
Si      -2.12518851       0.85805946       0.51774425       0.00000000
Si       0.00777033      -1.34697123      -1.97579455       0.00000000
Si       1.58674374       1.68318054       0.61734096       0.00000000
Si       3.07340172      -1.31781213       0.18315724       0.00000000
Si      -3.16319939      -1.25555175       0.72914585       0.00000000
Si      -2.79234125       1.49797953      -1.61965355       0.00000000
Si      -1.74706177      -0.01723482      -3.11308689       0.00000000
Si       0.34994178       3.06812376       2.16564215       0.00000000
Si       0.79739550      -0.97578729       3.55775447       0.00000000
