10
Lattice="16.28999089631971 0.0 0.0 0.0 16.28999089631971 0.0 0.0 0.0 34.48637585096406" Properties=species:S:1:pos:R:3:initial_magmoms:R:1 pbc="T T T"
Si       0.04302678       1.72287927      -1.64817380       0.00000000
Si       2.39420157       0.09208737       0.32041310       0.00000000
Si      -2.13978502      -0.02972925       1.14360335       0.00000000
Si      -0.08092872      -2.11797693      -1.32748481       0.00000000
Si       0.76157542       2.03198202       2.09594515       0.00000000
Si       0.36854659       0.55034136      -3.69269973       0.00000000
Si      -0.74808145      -1.47805686      -3.46488260       0.00000000
Si       3.08914926       2.30355261      -0.29547943       0.00000000
Si      -2.70465706      -2.18831715       1.74163193       0.00000000
Si      -3.98267272       0.59473161      -0.21926450       0.00000000
