10
Lattice="16.28999089631971 0.0 0.0 0.0 16.28999089631971 0.0 0.0 0.0 34.48637585096406" Properties=species:S:1:pos:R:3:initial_magmoms:R:1 pbc="T T T"
Si      -1.67468666       1.07111637      -1.25049048       0.00000000
Si       1.34195648       1.37080350       1.37362416       0.00000000
Si      -1.36289606      -1.35329175       1.37955582       0.00000000
Si       1.48082710      -1.28849013      -1.59058152       0.00000000
Si       2.71153335      -2.67506235      -0.00042418       0.00000000
Si      -3.47295605      -0.79939917      -1.37708659       0.00000000
Si      -2.71809374      -2.69040753      -0.00827329       0.00000000
Si       2.70159645       0.01259217       2.73504358       0.00000000
Si      -0.01686010      -2.69990460       2.73756108       0.00000000
Si       2.72200782       2.71711323       0.00006208       0.00000000
