10
Lattice="16.28999089631971 0.0 0.0 0.0 16.28999089631971 0.0 0.0 0.0 34.48637585096406" Properties=species:S:1:pos:R:3:initial_magmoms:R:1 pbc="T T T"
Si       1.28239767      -1.10506473      -1.66765861       0.00000000
Si      -0.35952030      -2.04113700       1.22443946       0.00000000
Si       0.85234167       1.58257350       1.70107593       0.00000000
Si      -1.62957667       1.32054885      -1.38069732       0.00000000
Si      -2.38080956      -1.34861652       2.20543945       0.00000000
Si       1.43037603      -1.90037511       2.73694378       0.00000000
Si       2.06891145      -3.00631950      -0.43735646       0.00000000
Si      -0.53036982      -2.37763953      -2.76225679       0.00000000
Si       2.42553213       0.53388846      -2.89999545       0.00000000
Si       2.60271846       2.89458639       0.70324657       0.00000000
