10
Lattice="16.28999089631971 0.0 0.0 0.0 16.28999089631971 0.0 0.0 0.0 34.48637585096406" Properties=species:S:1:pos:R:3:initial_magmoms:R:1 pbc="T T T"
Si      -1.60898026       1.04668137       1.35090107       0.00000000
Si      -1.62496075      -1.15898463      -1.32579497       0.00000000
Si       1.14631753       1.73787635      -1.24513130       0.00000000
Si       1.62957667      -1.32054885       1.38069732       0.00000000
Si      -2.25160447      -0.96290190       2.64500305       0.00000000
Si      -0.22773094      -2.35305792      -2.78339695       0.00000000
Si       2.47888840       0.38665944      -2.77060250       0.00000000
Si       2.91197434      -2.42561358      -0.28696129       0.00000000
Si      -0.71008436       2.62488330       2.81964215       0.00000000
Si       2.48191834       0.26202465       3.08177324       0.00000000
