10
Lattice="16.28999089631971 0.0 0.0 0.0 16.28999089631971 0.0 0.0 0.0 34.48637585096406" Properties=species:S:1:pos:R:3:initial_magmoms:R:1 pbc="T T T"
Si      -1.88180518       1.16833509      -0.83005304       0.00000000
Si       0.32551981      -1.17253791      -2.04452593       0.00000000
Si      -0.04302678      -1.72287927       1.64817380       0.00000000
Si       1.31472355       1.93303656       0.50836395       0.00000000
Si      -1.17485176       0.53372556      -2.98565966       0.00000000
Si       3.04612249       0.58067334       1.35269436       0.00000000
Si       2.35117480      -1.63079190       1.96858689       0.00000000
Si      -0.79110823      -3.20093613      -1.81670881       0.00000000
Si       0.71854864       0.30910275       3.74411895       0.00000000
Si      -0.12395550      -3.84085620       0.32068899       0.00000000
