10
Lattice="16.28999089631971 0.0 0.0 0.0 16.28999089631971 0.0 0.0 0.0 34.48637585096406" Properties=species:S:1:pos:R:3:initial_magmoms:R:1 pbc="T T T"
Si      -1.27378256       0.04996143      -1.93061737       0.00000000
Si      -1.43339198       1.12204447       1.46234976       0.00000000
Si       1.51795596      -1.64634885       0.70107393       0.00000000
Si       2.36778897      -1.72968849      -1.76242722       0.00000000
Si      -0.39555867       2.19656056      -2.59617031       0.00000000
Si       0.18516029       2.30064389       2.69702374       0.00000000
Si      -2.19736040       2.79198287      -0.17005241       0.00000000
Si       2.92805094      -0.41827833       2.36693376       0.00000000
Si       0.34356425      -3.05846379       2.39734042       0.00000000
Si      -0.12558775       3.86634095      -0.91692427       0.00000000
