10
Lattice="16.28999089631971 0.0 0.0 0.0 16.28999089631971 0.0 0.0 0.0 34.32429715621058" Properties=species:S:1:pos:R:3:initial_magmoms:R:1 pbc="T T T"
Si       1.35016407       1.35655464      -1.33470447       0.00000000
Si       1.35742941      -1.35671044       1.35745806       0.00000000
Si      -1.35982404       1.35611481       1.35831617       0.00000000
Si      -1.37171574      -1.36640750      -1.38741976       0.00000000
Si       2.50835049      -0.04552729      -2.76079744       0.00000000
Si       2.71347417       2.71272972       0.00006865       0.00000000
Si      -2.71623858       2.71106814       0.00185351       0.00000000
Si      -2.71583133      -2.71248278       0.00120135       0.00000000
Si       2.71339272      -0.00001466       2.71567126       0.00000000
Si       2.71293660      -2.71629464       0.00006865       0.00000000
