10
Lattice="16.28999089631971 0.0 0.0 0.0 16.28999089631971 0.0 0.0 0.0 34.32429715621058" Properties=species:S:1:pos:R:3:initial_magmoms:R:1 pbc="T T T"
Si       2.22106819       0.84506004       0.37543937       0.00000000
Si      -1.46673435       1.82749365       0.80809738       0.00000000
Si      -1.40066211       0.01057221      -2.07802844       0.00000000
Si       0.23829827      -2.60683527      -0.00130432       0.00000000
Si      -0.36600291      -1.23760506       2.36024296       0.00000000
Si      -3.17866674       0.17177805       0.88783277       0.00000000
Si       1.76208115       2.91882591      -0.69867146       0.00000000
Si       0.38706017       0.63835623       3.56406539       0.00000000
Si       3.49598875      -0.79203609      -0.73443740       0.00000000
Si      -3.50129019      -0.69799392      -1.25331809       0.00000000
