10
Lattice="16.28999089631971 0.0 0.0 0.0 16.28999089631971 0.0 0.0 0.0 34.32429715621058" Properties=species:S:1:pos:R:3:initial_magmoms:R:1 pbc="T T T"
Si       0.86051925       1.64015865      -1.48950371       0.00000000
Si      -1.75967838      -0.97736742      -1.31434672       0.00000000
Si       1.59666435      -1.92741651      -0.15215969       0.00000000
Si      -0.17485686       0.88808193       2.46369645       0.00000000
Si       2.75476932       1.67135400       1.63160638       0.00000000
Si       2.29159575       0.38349918      -2.82180205       0.00000000
Si      -0.44220834      -2.32825477      -2.80896475       0.00000000
Si       2.15702406       3.02795262      -0.12157673       0.00000000
Si       1.25895636      -2.93717171       2.01851007       0.00000000
Si      -2.59331913      -2.88711580      -0.21466427       0.00000000
