10
Lattice="16.28999089631971 0.0 0.0 0.0 16.28999089631971 0.0 0.0 0.0 34.32429715621058" Properties=species:S:1:pos:R:3:initial_magmoms:R:1 pbc="T T T"
Si       1.37749869       1.91755275      -0.08660025       0.00000000
Si      -1.38455226       0.15891042      -1.94986144       0.00000000
Si      -1.70570961       0.36175350       1.65323070       0.00000000
Si       2.77268832      -0.09646858      -0.66657822       0.00000000
Si      -0.67932558      -2.11053160      -1.96767576       0.00000000
Si       0.11797218       1.20986465       3.01294528       0.00000000
Si       2.75670783      -2.49282532      -0.53803366       0.00000000
Si      -3.62517660       0.25398049      -1.14468163       0.00000000
Si       1.06606647       3.10807482       1.93566494       0.00000000
Si       0.83352672       3.56427627      -1.61969584       0.00000000
