10
Lattice="16.28999089631971 0.0 0.0 0.0 16.28999089631971 0.0 0.0 0.0 34.32429715621058" Properties=species:S:1:pos:R:3:initial_magmoms:R:1 pbc="T T T"
Si      -0.91512333      -1.76464683      -1.26523004       0.00000000
Si      -1.40405139       1.26353385       1.43236402       0.00000000
Si       1.32079320      -1.42822575       1.45215542       0.00000000
Si       1.27039194       1.39126374      -1.60383942       0.00000000
Si       2.67771762       2.60446149      -0.06633517       0.00000000
Si       2.56417632      -0.24400791      -2.76341780       0.00000000
Si      -1.47470112      -0.73109520      -3.40250224       0.00000000
Si      -2.63844243      -2.77454538       0.07515996       0.00000000
Si       2.61241101      -2.80129356       0.05256769       0.00000000
Si      -0.02775816       2.61747720       2.81220497       0.00000000
