10
Lattice="16.28999089631971 0.0 0.0 0.0 16.28999089631971 0.0 0.0 0.0 34.32429715621058" Properties=species:S:1:pos:R:3:initial_magmoms:R:1 pbc="T T T"
Si      -0.75306308      -1.87596129      -1.20382242       0.00000000
Si      -1.30322511       1.90026108      -0.57252960       0.00000000
Si      -0.74008663      -0.75404781       2.14890815       0.00000000
Si       2.22208469       0.43984629      -0.78163333       0.00000000
Si      -1.33241679       1.38758220       2.83309475       0.00000000
Si      -1.85379453       1.18913742      -2.75596801       0.00000000
Si      -0.38706017      -0.63835623      -3.56406539       0.00000000
Si       1.83400802       0.20670381      -3.18862601       0.00000000
Si      -2.91515319       2.03356215       1.15130622       0.00000000
Si       0.40852388      -3.82169006      -0.39153748       0.00000000
