10
Lattice="16.28999089631971 0.0 0.0 0.0 16.28999089631971 0.0 0.0 0.0 34.32429715621058" Properties=species:S:1:pos:R:3:initial_magmoms:R:1 pbc="T T T"
Si      -1.35697329       1.35381303      -1.36178293       0.00000000
Si       1.34426709       1.36052451       1.37451725       0.00000000
Si       1.36137159      -1.36041048      -1.36034131       0.00000000
Si      -1.35927018      -1.35654975       1.39394481       0.00000000
Si       2.65580757      -0.10199169       2.67376127       0.00000000
Si      -2.71344159       2.71083519      -0.00459946       0.00000000
Si       0.00213399       2.71215468      -2.71876045       0.00000000
Si      -2.71384884      -2.71753038       0.00020595       0.00000000
Si      -2.71327869      -0.00221544      -2.71896639       0.00000000
Si       2.71922454       2.71360449      -0.00353540       0.00000000
