10
Lattice="16.28999089631971 0.0 0.0 0.0 16.28999089631971 0.0 0.0 0.0 34.32429715621058" Properties=species:S:1:pos:R:3:initial_magmoms:R:1 pbc="T T T"
Si       1.31154048      -1.46251620       1.29924402       0.00000000
Si      -1.34426709      -1.36052451      -1.37451725       0.00000000
Si       1.37495745       1.35307998      -1.37805265       0.00000000
Si      -1.30025151       1.46106639       1.50838208       0.00000000
Si       2.60804529      -0.07472223       2.66717100       0.00000000
Si      -2.68356573       2.70381420      -0.00772297       0.00000000
Si      -2.70353727      -2.71707426       0.01942756       0.00000000
Si       2.72196126       2.69887833      -0.00913027       0.00000000
Si      -2.70124038      -0.00671148      -2.73630017       0.00000000
Si       0.01436778       2.70752832      -2.73568234       0.00000000
