10
Lattice="16.28999089631971 0.0 0.0 0.0 16.28999089631971 0.0 0.0 0.0 34.32429715621058" Properties=species:S:1:pos:R:3:initial_magmoms:R:1 pbc="T T T"
Si       0.91512333       1.76464683       1.26523004       0.00000000
Si      -1.72331910      -1.00989855       1.34038999       0.00000000
Si      -0.55957779       1.03355163      -2.13727221       0.00000000
Si       1.62939096      -1.91208762       0.24162263       0.00000000
Si       1.64574612       0.93742434      -2.91258986       0.00000000
Si      -0.98261280      -1.01633310      -3.20709250       0.00000000
Si       2.23591653       0.33642108       2.71738546       0.00000000
Si      -0.47688975      -2.40821586       2.74499594       0.00000000
Si      -2.86363539      -2.51815707      -0.14488294       0.00000000
Si       2.18551527       3.15591057      -0.33860938       0.00000000
