10
Lattice="16.28999089631971 0.0 0.0 0.0 16.28999089631971 0.0 0.0 0.0 34.32429715621058" Properties=species:S:1:pos:R:3:initial_magmoms:R:1 pbc="T T T"
Si      -1.35855342       1.35505107       1.36071887       0.00000000
Si       1.35407367       1.34374581      -1.37859498       0.00000000
Si       1.35685926      -1.36093176       1.36065022       0.00000000
Si      -1.37629323      -1.35394335      -1.37984095       0.00000000
Si      -2.71681362       2.71085148       0.00209378       0.00000000
Si       2.71440270       2.71423980      -0.00137297       0.00000000
Si      -0.00035838       2.71205694       2.71790234       0.00000000
Si       2.71204065      -2.71961550       0.00147595       0.00000000
Si       2.71402803      -0.00231318       2.71797099       0.00000000
Si       0.02775816      -2.61747720      -2.81220497       0.00000000
