10
Lattice="16.28999089631971 0.0 0.0 0.0 16.28999089631971 0.0 0.0 0.0 34.32429715621058" Properties=species:S:1:pos:R:3:initial_magmoms:R:1 pbc="T T T"
Si       1.35005004       1.36140417      -1.35999806       0.00000000
Si      -1.52914230       1.20355407       1.31922077       0.00000000
Si      -1.36410831      -1.35549090      -1.36164563       0.00000000
Si       1.35202113      -1.32348105       1.41028319       0.00000000
Si      -0.15022638      -2.31630768       3.03238173       0.00000000
Si      -2.70422145      -2.71682991       0.00823784       0.00000000
Si       2.70130554      -2.72176578       0.00683054       0.00000000
Si      -2.71948518       2.70814734      -0.02625810       0.00000000
Si       2.70972747       0.00123804      -2.71965288       0.00000000
Si      -0.00628794      -2.71311579      -2.71972153       0.00000000
