10
Lattice="16.28999089631971 0.0 0.0 0.0 16.28999089631971 0.0 0.0 0.0 34.32429715621058" Properties=species:S:1:pos:R:3:initial_magmoms:R:1 pbc="T T T"
Si      -0.84167172       2.22972633      -0.22853130       0.00000000
Si       2.38467681       0.15583014      -0.15202240       0.00000000
Si      -0.48485556      -0.51754959       2.36110107       0.00000000
Si      -0.01953171      -1.95449049      -1.83436011       0.00000000
Si       3.00509775      -2.09368854      -0.32975371       0.00000000
Si      -3.01257486       2.03437665       0.76711415       0.00000000
Si      -2.42869239      -1.78639398       2.18814084       0.00000000
Si       1.48271580      -0.96166386      -3.45645866       0.00000000
Si      -0.71535906       1.53704295       3.60360700       0.00000000
Si      -3.21696549       0.60054714      -2.31987757       0.00000000
