10
Lattice="16.28999089631971 0.0 0.0 0.0 16.28999089631971 0.0 0.0 0.0 34.32429715621058" Properties=species:S:1:pos:R:3:initial_magmoms:R:1 pbc="T T T"
Si      -1.94383683      -1.26884439      -0.17296023       0.00000000
Si       1.47541788      -1.27936773       1.41313210       0.00000000
Si      -0.23050350       2.05459254       1.24250593       0.00000000
Si       0.48485556       0.51754959      -2.36110107       0.00000000
Si      -2.88360693      -0.87527799       1.93952982       0.00000000
Si       0.65528154      -0.80602920       3.58201700       0.00000000
Si      -0.35681616       2.74727592      -2.58963237       0.00000000
Si      -2.40158583       2.86806627       0.75417388       0.00000000
Si       0.00830790       1.48820553       3.55328755       0.00000000
Si       2.86953237       0.67337973      -2.51312347       0.00000000
