10
Lattice="16.28999089631971 0.0 0.0 0.0 16.28999089631971 0.0 0.0 0.0 34.32429715621058" Properties=species:S:1:pos:R:3:initial_magmoms:R:1 pbc="T T T"
Si      -0.04336398      -2.36687184      -0.23604832       0.00000000
Si      -1.39215969       1.11584871       1.58739666       0.00000000
Si       2.31192567       0.42839442       0.44889341       0.00000000
Si      -1.06256412       0.83206062      -2.00302980       0.00000000
Si       1.75239675      -2.83206537       1.22857025       0.00000000
Si      -3.45963762       0.69931341       0.43070152       0.00000000
Si      -3.24113985      -0.06962346      -1.84016092       0.00000000
Si       0.96946677      -2.71868697      -2.39120350       0.00000000
Si       2.42818740       1.23978303       2.66892154       0.00000000
Si       3.44698029      -1.63756854       0.11512376       0.00000000
