10
Lattice="16.28999089631971 0.0 0.0 0.0 16.28999089631971 0.0 0.0 0.0 34.32429715621058" Properties=species:S:1:pos:R:3:initial_magmoms:R:1 pbc="T T T"
Si       1.35698958       1.35672894      -1.35807590       0.00000000
Si       1.35565380      -1.35982404       1.35773266       0.00000000
Si      -1.35661491       1.35998694       1.35701185       0.00000000
Si      -1.35749457      -1.35874890      -1.35797293       0.00000000
Si       0.00027693       2.70381420       2.69312018       0.00000000
Si      -2.71539313       2.71278999      -0.00116703       0.00000000
Si      -0.00014661       2.71407690      -2.71512207       0.00000000
Si       2.71358820       2.71625976      -0.00078946       0.00000000
Si      -2.71468940      -0.00087966      -2.71529369       0.00000000
Si       2.71507059      -0.00127062      -2.71505342       0.00000000
