10
Lattice="16.28999089631971 0.0 0.0 0.0 16.28999089631971 0.0 0.0 0.0 34.32429715621058" Properties=species:S:1:pos:R:3:initial_magmoms:R:1 pbc="T T T"
Si       0.48337317       1.85921028       1.30150943       0.00000000
Si      -2.14065261      -0.82288935       0.67519363       0.00000000
Si       1.41341814      -1.70670982       0.89888520       0.00000000
Si       0.69269967      -0.07169229      -2.33940810       0.00000000
Si       0.32878107      -3.23495684      -0.48699340       0.00000000
Si       2.59297704       2.46288510       0.48809178       0.00000000
Si       0.96539427      -2.38159148      -2.61616507       0.00000000
Si      -1.88636571      -3.15305072       0.37894045       0.00000000
Si      -0.95892714       1.10695437      -3.56475187       0.00000000
Si       0.85037058       1.37070576       3.55280701       0.00000000
