10
Lattice="16.28999089631971 0.0 0.0 0.0 16.28999089631971 0.0 0.0 0.0 34.32429715621058" Properties=species:S:1:pos:R:3:initial_magmoms:R:1 pbc="T T T"
Si       0.89666676       1.77005511       1.23543512       0.00000000
Si      -1.19034288       1.50459327      -1.34547888       0.00000000
Si       1.52914230      -1.20355407      -1.31922077       0.00000000
Si      -1.81851786      -0.96482412       1.22764350       0.00000000
Si       0.55677591       0.66435507       3.31898977       0.00000000
Si      -3.32128665       0.95280210       1.27171592       0.00000000
Si      -2.54723472       0.16076601      -2.68158721       0.00000000
Si       0.16503399      -2.55904497      -2.68086640       0.00000000
Si      -2.49735474       2.84783409       0.01499973       0.00000000
Si       2.88116343      -2.52703512       0.09106241       0.00000000
