10
Lattice="16.28999089631971 0.0 0.0 0.0 16.28999089631971 0.0 0.0 0.0 34.32429715621058" Properties=species:S:1:pos:R:3:initial_magmoms:R:1 pbc="T T T"
Si       1.42667820       1.70875584      -0.69197822       0.00000000
Si      -2.17108233       0.81347373      -0.48833205       0.00000000
Si       0.23881140      -0.56638701       2.31078162       0.00000000
Si       0.23050350      -2.05459254      -1.24250593       0.00000000
Si      -3.19916052      -0.69450786       0.99729301       0.00000000
Si      -2.00407725       0.00011403       2.89676635       0.00000000
Si      -2.29721580       0.49733370      -2.83649285       0.00000000
Si       1.70592138      -3.33396027       0.17062618       0.00000000
Si       0.88578504      -2.86062174       2.33951108       0.00000000
Si       1.52515125       3.34284388       1.15659216       0.00000000
