10
Lattice="16.28999089631971 0.0 0.0 0.0 16.28999089631971 0.0 0.0 0.0 34.32429715621058" Properties=species:S:1:pos:R:3:initial_magmoms:R:1 pbc="T T T"
Si      -1.56849894      -1.03076604      -1.43015696       0.00000000
Si      -0.48679407       2.30180958      -0.20079725       0.00000000
Si      -0.63873090      -0.69323724       2.21360948       0.00000000
Si       2.32310061      -0.23589549      -0.63366120       0.00000000
Si       3.41920584       0.60004215       1.25568646       0.00000000
Si      -0.92152530      -3.32500077      -1.40142751       0.00000000
Si       0.91709442       3.49683162       1.38965427       0.00000000
Si      -0.28215909       2.87846485      -2.58434643       0.00000000
Si      -2.72054403       2.79063731       0.50717610       0.00000000
Si      -3.81138759      -0.46426500      -0.84417224       0.00000000
