10
Lattice="16.28999089631971 0.0 0.0 0.0 16.28999089631971 0.0 0.0 0.0 34.32429715621058" Properties=species:S:1:pos:R:3:initial_magmoms:R:1 pbc="T T T"
Si      -2.28281544       0.39350124       0.52698123       0.00000000
Si       0.63873090       0.69323724      -2.21360948       0.00000000
Si      -0.61238997      -2.34797544      -0.02461053       0.00000000
Si       1.42921944       0.84753612       1.82522985       0.00000000
Si       3.52370619       0.09635535       1.03669733       0.00000000
Si      -2.52087750      -0.44154045       2.71718153       0.00000000
Si      -1.55996298      -2.61762381       2.22026840       0.00000000
Si      -0.92976804      -0.33752880      -3.64376645       0.00000000
Si      -2.71842633       2.63050920       0.42273828       0.00000000
Si       0.15193683       2.99504682      -2.41440674       0.00000000
