10
Lattice="16.28999089631971 0.0 0.0 0.0 16.28999089631971 0.0 0.0 0.0 34.32429715621058" Properties=species:S:1:pos:R:3:initial_magmoms:R:1 pbc="T T T"
Si      -2.19292722       0.09363492       0.75444847       0.00000000
Si       1.19065239       1.56335130       1.29073159       0.00000000
Si       0.23806206       0.83504169      -2.19020030       0.00000000
Si       0.96091452      -2.17608336      -0.49691313       0.00000000
Si       3.18536289       0.36610146       1.13757649       0.00000000
Si       2.65469985      -1.97203482       1.11543731       0.00000000
Si      -3.44279050      -0.96177789      -0.92888465       0.00000000
Si       2.52087750       0.44154045      -2.71718153       0.00000000
Si      -2.88528480       2.31590043       0.74483766       0.00000000
Si      -0.19754883       3.07204965      -2.29444325       0.00000000
