10
Lattice="16.28999089631971 0.0 0.0 0.0 16.28999089631971 0.0 0.0 0.0 34.32429715621058" Properties=species:S:1:pos:R:3:initial_magmoms:R:1 pbc="T T T"
Si      -1.28796885       1.41981359       1.43904353       0.00000000
Si       1.41405345      -1.29039793       1.46869287       0.00000000
Si       2.01021858       0.85629362      -1.02551206       0.00000000
Si      -1.25310825      -1.40890322      -1.52014644       0.00000000
Si      -2.56430664      -2.69130089       0.04520512       0.00000000
Si       0.54530775      -2.35733960      -2.89294747       0.00000000
Si       2.79648801      -2.59087304       0.11933192       0.00000000
Si      -2.63283867       0.06090179       2.81705499       0.00000000
Si       0.08373060      -2.65917701       2.82594499       0.00000000
Si      -2.70746316       2.78735909       0.05930555       0.00000000
