10
Lattice="16.28999089631971 0.0 0.0 0.0 16.28999089631971 0.0 0.0 0.0 34.32429715621058" Properties=species:S:1:pos:R:3:initial_magmoms:R:1 pbc="T T T"
Si      -1.05590477      -1.63284444      -1.30851159       0.00000000
Si       2.27460528       0.32027769      -0.79968792       0.00000000
Si       0.39358269      -1.18154628       2.26252164       0.00000000
Si      -1.15962971       2.14498575      -0.99362031       0.00000000
Si       0.19536597      -3.42957117      -0.43131936       0.00000000
Si       2.69764029       2.37016242       0.27013237       0.00000000
Si       1.90760787       0.80878221      -3.05098551       0.00000000
Si       0.45048366       2.63959902      -2.73369153       0.00000000
Si       1.53389898       0.32671224       3.74779457       0.00000000
Si      -0.71641791      -1.87331742      -3.67730131       0.00000000
