10
Lattice="16.28999089631971 0.0 0.0 0.0 16.28999089631971 0.0 0.0 0.0 34.32429715621058" Properties=species:S:1:pos:R:3:initial_magmoms:R:1 pbc="T T T"
Si      -1.25235891       1.41913593      -1.40060373       0.00000000
Si       1.79346384       0.77792895       1.31359159       0.00000000
Si       1.44241434      -1.32290113      -1.36428860       0.00000000
Si      -1.94729031      -0.89177976       1.26903862       0.00000000
Si      -2.68343541       2.67579540      -0.06830539       0.00000000
Si      -2.62110987       0.05681952      -2.74814206       0.00000000
Si       2.75678928       2.62112616       0.04599458       0.00000000
Si       0.09664857      -2.65426539      -2.74642585       0.00000000
Si      -2.69120574      -2.71662533      -0.03662405       0.00000000
Si       0.09373266       2.77511553      -2.74519017       0.00000000
