10
Lattice="16.28999089631971 0.0 0.0 0.0 16.28999089631971 0.0 0.0 0.0 34.32429715621058" Properties=species:S:1:pos:R:3:initial_magmoms:R:1 pbc="T T T"
Si      -1.75703940      -1.55621628       0.30195101       0.00000000
Si       1.87005942      -1.16480016       0.91755762       0.00000000
Si      -0.84957237       1.91730042       1.14008217       0.00000000
Si       0.69017472       1.25779977      -2.08726168       0.00000000
Si      -1.44075276       2.13063426      -2.38025404       0.00000000
Si      -1.41636663       3.45079215      -0.49763394       0.00000000
Si       2.19268287      -0.29502819       3.05870848       0.00000000
Si      -1.67127255      -2.19991889       2.63548966       0.00000000
Si       0.74178144       2.83608900       2.60676020       0.00000000
Si       3.97068750      -0.45623403       0.09284728       0.00000000
