10
Lattice="16.28999089631971 0.0 0.0 0.0 16.28999089631971 0.0 0.0 0.0 34.32429715621058" Properties=species:S:1:pos:R:3:initial_magmoms:R:1 pbc="T T T"
Si      -1.08134649       1.70409690      -1.16888027       0.00000000
Si       2.01859164       1.16722737       0.12349889       0.00000000
Si      -1.09683828       0.18518472       2.07099195       0.00000000
Si      -0.22556763      -2.01334952      -1.31043375       0.00000000
Si       0.59613255       2.10386979      -2.80584124       0.00000000
Si       2.44506384       1.03645125       2.42370863       0.00000000
Si      -1.30183164      -1.98438590       2.83844934       0.00000000
Si      -3.30427989       0.89881704       1.50422884       0.00000000
Si       3.63838779      -0.10845882      -0.88721493       0.00000000
Si      -3.40307874       1.32204753      -0.88954898       0.00000000
