10
Lattice="16.28999089631971 0.0 0.0 0.0 16.28999089631971 0.0 0.0 0.0 34.32429715621058" Properties=species:S:1:pos:R:3:initial_magmoms:R:1 pbc="T T T"
Si      -1.34609157      -1.35597960       1.34458644       0.00000000
Si       1.35666378      -1.35806472      -1.35835049       0.00000000
Si      -1.35852084       1.35668007      -1.35893401       0.00000000
Si       1.36257705       1.35019665       1.38107319       0.00000000
Si      -2.71375110       2.71627605      -0.00041189       0.00000000
Si       2.71770957      -2.71295289       0.00102973       0.00000000
Si       2.71502172      -0.00065160      -2.71567126       0.00000000
Si      -0.00092853       2.71498914      -2.71573991       0.00000000
Si       2.71668330       2.71410948       0.00449649       0.00000000
Si      -0.00078192      -2.71526607      -2.71584288       0.00000000
