10
Lattice="16.28999089631971 0.0 0.0 0.0 16.28999089631971 0.0 0.0 0.0 34.32429715621058" Properties=species:S:1:pos:R:3:initial_magmoms:R:1 pbc="T T T"
Si      -1.35407367      -1.34374581       1.37859498       0.00000000
Si       1.36032903       1.37049399       1.37722200       0.00000000
Si      -1.31053050       1.38886911      -1.44612807       0.00000000
Si       1.35140211      -1.35676152      -1.49994516       0.00000000
Si       0.67640967       2.15269092      -2.75427380       0.00000000
Si       2.30068557       0.26378397      -2.90650214       0.00000000
Si       2.71821456      -2.69747739      -0.00352854       0.00000000
Si      -2.73036690      -2.69768916      -0.00124597       0.00000000
Si      -2.69736336       2.73654081       0.00211095       0.00000000
Si       0.00278559      -2.70467757       2.73924520       0.00000000
