10
Lattice="16.28999089631971 0.0 0.0 0.0 16.28999089631971 0.0 0.0 0.0 34.32429715621058" Properties=species:S:1:pos:R:3:initial_magmoms:R:1 pbc="T T T"
Si       1.04451480      -0.85043574       1.87911902       0.00000000
Si      -0.62042094       2.24951868       0.17773131       0.00000000
Si      -1.67866821      -1.65284856      -0.41398558       0.00000000
Si       2.01474720       0.03587058      -1.72435068       0.00000000
Si       0.29986632       2.05113906      -1.97327062       0.00000000
Si      -3.02462946       0.13919805      -1.50460641       0.00000000
Si       0.62011143       2.50940934       2.19225976       0.00000000
Si       0.33511788      -3.07630134       1.78194688       0.00000000
Si      -0.28701351      -3.03986061      -1.85385633       0.00000000
Si       3.36807153      -0.86027490       1.00000463       0.00000000
