10
Lattice="16.28999089631971 0.0 0.0 0.0 16.28999089631971 0.0 0.0 0.0 34.32429715621058" Properties=species:S:1:pos:R:3:initial_magmoms:R:1 pbc="T T T"
Si      -1.35773596       1.35884664      -1.35563887       0.00000000
Si      -1.35700291      -1.35762489       1.35790428       0.00000000
Si       1.35743956       1.35762489       1.35811022       0.00000000
Si       1.35796573      -1.36073628      -1.35601644       0.00000000
Si      -0.00898091       2.71391400      -2.69272202       0.00000000
Si      -2.71438345       2.71265967       0.00058351       0.00000000
Si      -2.71395991      -0.00040725       2.71484748       0.00000000
Si       0.00104569       2.71438641       2.71467585       0.00000000
Si       0.00001207      -2.71472850       2.71464153       0.00000000
Si       2.71475494       0.00070047       2.71467585       0.00000000
