10
Lattice="16.28999089631971 0.0 0.0 0.0 16.28999089631971 0.0 0.0 0.0 34.32429715621058" Properties=species:S:1:pos:R:3:initial_magmoms:R:1 pbc="T T T"
Si       1.35630540       1.35602847       1.35718347       0.00000000
Si      -1.35731538       1.35692442      -1.35656563       0.00000000
Si      -1.35860881      -1.35713619       1.35697752       0.00000000
Si       1.35804843      -1.35881406      -1.35663428       0.00000000
Si      -2.71370925       2.71368594       0.00000000       0.00000000
Si      -0.00016290       2.71305063       2.71436694       0.00000000
Si      -2.71351394      -0.00042354       2.71433261       0.00000000
Si      -2.71475494      -0.00070047      -2.71467585       0.00000000
Si       2.71541268       2.71437012       0.00020595       0.00000000
Si      -0.00032580       2.71567332      -2.71436694       0.00000000
