10
Lattice="16.28999089631971 0.0 0.0 0.0 16.28999089631971 0.0 0.0 0.0 34.32429715621058" Properties=species:S:1:pos:R:3:initial_magmoms:R:1 pbc="T T T"
Si       2.21014575      -0.55389258      -0.56858230       0.00000000
Si      -0.98010414      -0.67559517      -2.03024899       0.00000000
Si      -0.50811768      -1.39158954       1.90239091       0.00000000
Si      -0.83785986       2.31217395      -0.22317670       0.00000000
Si      -3.11337738       1.72277080      -0.04829431       0.00000000
Si       3.44155572       0.14965623       1.28060592       0.00000000
Si      -3.21185043       0.08868276      -1.89686469       0.00000000
Si       2.94661665       0.98321553      -2.20997111       0.00000000
Si      -0.40241187       0.77861313      -3.76338669       0.00000000
Si       0.58798755      -0.55565190       3.79173858       0.00000000
