10
Lattice="16.28999089631971 0.0 0.0 0.0 16.28999089631971 0.0 0.0 0.0 34.32429715621058" Properties=species:S:1:pos:R:3:initial_magmoms:R:1 pbc="T T T"
Si       1.46513889       0.97831224       1.53093316       0.00000000
Si      -0.31574907      -2.32039647       0.02021702       0.00000000
Si      -2.09448675       0.75118077       0.78853252       0.00000000
Si       0.53423055       1.19692404      -1.99462035       0.00000000
Si       0.71871480       3.14173699       0.83826845       0.00000000
Si       1.63896948      -3.13696530       0.95977653       0.00000000
Si      -3.52370619      -0.09635535      -1.03669733       0.00000000
Si      -1.50267105       3.02316833       1.65755556       0.00000000
Si       0.85020768       0.20294082       3.66027645       0.00000000
Si       0.31040595       3.45450694      -1.48047641       0.00000000
