10
Lattice="16.28999089631971 0.0 0.0 0.0 16.28999089631971 0.0 0.0 0.0 34.32429715621058" Properties=species:S:1:pos:R:3:initial_magmoms:R:1 pbc="T T T"
Si       1.38243456      -1.30047511      -1.34936096       0.00000000
Si      -1.33032285      -1.36877908       1.35725212       0.00000000
Si       1.38091959       1.34864446       1.34966644       0.00000000
Si      -1.41405345       1.29039793      -1.46869287       0.00000000
Si       0.59616513       2.14669156      -2.49420494       0.00000000
Si       2.27791215       0.47870307      -2.65086489       0.00000000
Si      -2.68949529      -0.01077391       2.71038532       0.00000000
Si       0.09192447      -2.57523277      -2.81958611       0.00000000
Si      -2.66639607      -2.73534718      -0.02020329       0.00000000
Si      -2.70202230       2.71021153      -0.02964934       0.00000000
