10
Lattice="16.28999089631971 0.0 0.0 0.0 16.28999089631971 0.0 0.0 0.0 34.32429715621058" Properties=species:S:1:pos:R:3:initial_magmoms:R:1 pbc="T T T"
Si      -1.35625653       1.35837423       1.36106212       0.00000000
Si       1.35856971      -1.35893528       1.36040995       0.00000000
Si      -1.38091959      -1.34864446      -1.34966644       0.00000000
Si       1.38427533       1.35925389      -1.35851525       0.00000000
Si       0.00151497      -2.64911957      -2.69902740       0.00000000
Si       0.02754639       2.67682167      -2.70435797       0.00000000
Si      -2.71013472       2.71630863       0.00532027       0.00000000
Si       2.71713520      -2.71149398       0.00405027       0.00000000
Si      -2.71124244      -2.71742354       0.00758567       0.00000000
Si       2.71672795       2.71205694       0.00470243       0.00000000
