10
Lattice="16.28999089631971 0.0 0.0 0.0 16.28999089631971 0.0 0.0 0.0 34.32429715621058" Properties=species:S:1:pos:R:3:initial_magmoms:R:1 pbc="T T T"
Si       1.34374581       1.35817875       1.34115401       0.00000000
Si       1.35356868      -1.35939724      -1.35893401       0.00000000
Si      -1.36104579       1.35488817      -1.35938022       0.00000000
Si      -1.36902789      -1.38506377       1.37987184       0.00000000
Si      -0.05465295       2.55896352       2.79015503       0.00000000
Si       2.63321334       0.03420900       2.74646017       0.00000000
Si       2.71251306       2.71298547      -0.00254000       0.00000000
Si       2.71128412      -0.00201996      -2.71690694       0.00000000
Si      -0.00268785       2.71230129      -2.71670099       0.00000000
Si       2.71047681      -2.71896080      -0.00051486       0.00000000
