10
Lattice="16.28999089631971 0.0 0.0 0.0 16.28999089631971 0.0 0.0 0.0 34.32429715621058" Properties=species:S:1:pos:R:3:initial_magmoms:R:1 pbc="T T T"
Si      -2.10062808      -0.70856613       0.82471035       0.00000000
Si       0.60431013      -0.81552627      -2.14060166       0.00000000
Si      -0.31561875       2.29408812      -0.51905231       0.00000000
Si       1.40066211      -0.01057221       2.07802844       0.00000000
Si       2.45323232       0.79332300      -2.01607304       0.00000000
Si      -0.06607224       1.81692144       2.88612581       0.00000000
Si       2.01301950       2.71821456      -0.67467876       0.00000000
Si      -1.77800463       0.16120584       2.96586120       0.00000000
Si      -1.85748354      -3.07264328       0.55584798       0.00000000
Si       0.42898086      -3.63472973       0.29800371       0.00000000
