10
Lattice="16.28999089631971 0.0 0.0 0.0 16.28999089631971 0.0 0.0 0.0 34.32429715621058" Properties=species:S:1:pos:R:3:initial_magmoms:R:1 pbc="T T T"
Si      -0.79433298      -0.31640067       2.25715370       0.00000000
Si      -0.58872060      -1.91569423      -1.37530671       0.00000000
Si      -0.90793944       2.15909289      -1.03542733       0.00000000
Si       0.88741404      -1.98438916       2.10049374       0.00000000
Si       2.93731899      -0.31814370      -1.69174258       0.00000000
Si      -2.60670951       0.89335989      -2.21659570       0.00000000
Si       0.01796787       1.56237390       3.39666711       0.00000000
Si      -1.75449816      -1.02419465      -3.18625764       0.00000000
Si       0.96726762       3.18223521       2.02019196       0.00000000
Si       0.71892657       2.99786499      -2.47279240       0.00000000
