10
Lattice="16.28999089631971 0.0 0.0 0.0 16.28999089631971 0.0 0.0 0.0 34.32429715621058" Properties=species:S:1:pos:R:3:initial_magmoms:R:1 pbc="T T T"
Si       1.24743933      -1.23950610       1.64567935       0.00000000
Si       1.45179738      -0.12908196      -1.95772171       0.00000000
Si      -1.71745470      -1.81956042      -0.01537729       0.00000000
Si      -0.79104240       2.58945840       0.79230819       0.00000000
Si      -0.30240756      -1.03259052      -3.31517977       0.00000000
Si       0.46392291      -0.05861142       3.56959160       0.00000000
Si       0.55887732       2.32204176       2.85818582       0.00000000
Si      -1.26573300      -2.87578773      -2.04758277       0.00000000
Si       3.57607758      -0.81537966       1.49005290       0.00000000
Si      -3.84838218      -0.94672593      -0.30836966       0.00000000
