10
Lattice="16.28999089631971 0.0 0.0 0.0 16.28999089631971 0.0 0.0 0.0 34.32429715621058" Properties=species:S:1:pos:R:3:initial_magmoms:R:1 pbc="T T T"
Si       2.32863825       0.42412644      -0.15562645       0.00000000
Si       0.31561875      -2.29408812       0.51905231       0.00000000
Si      -0.78351642       1.18089468       1.92391226       0.00000000
Si      -1.24743933       1.23950610      -1.64567935       0.00000000
Si       0.24954651      -0.47716668       3.40517813       0.00000000
Si      -2.96489403      -0.58005432      -1.66105664       0.00000000
Si       2.76885107      -1.50076512      -1.49702073       0.00000000
Si       0.91992888      -3.10961439      -1.62154935       0.00000000
Si      -1.78500933      -3.00265425       1.34376266       0.00000000
Si       0.20435805       1.11042414      -3.60340105       0.00000000
