10
Lattice="16.28999089631971 0.0 0.0 0.0 16.28999089631971 0.0 0.0 0.0 34.32429715621058" Properties=species:S:1:pos:R:3:initial_magmoms:R:1 pbc="T T T"
Si      -1.18485315       1.42312698       1.55633315       0.00000000
Si       2.38942534       0.35689761       0.16894429       0.00000000
Si      -0.37413243      -2.32968177       0.84873737       0.00000000
Si       0.23987840       1.02442923      -2.45034429       0.00000000
Si       2.14054673      -0.45372537      -2.58365994       0.00000000
Si       2.72566723      -1.34219826       1.80175201       0.00000000
Si       0.77559134      -2.13964263       2.90277311       0.00000000
Si      -1.22438735       3.67675074       0.55454365       0.00000000
Si       2.74687681       2.24272575       1.66888258       0.00000000
Si      -2.49841263      -1.64338407      -2.59903723       0.00000000
