10
Lattice="16.28999089631971 0.0 0.0 0.0 16.28999089631971 0.0 0.0 0.0 34.32429715621058" Properties=species:S:1:pos:R:3:initial_magmoms:R:1 pbc="T T T"
Si      -1.26570042       1.36321236      -1.43324615       0.00000000
Si       0.96904323       1.64361213       1.38948265       0.00000000
Si       1.45624455      -1.36642149      -1.39514616       0.00000000
Si      -1.79867664      -1.06727193       1.38141644       0.00000000
Si       0.76088961       0.36531954       3.44760298       0.00000000
Si      -2.48797170       2.76855066       0.04523945       0.00000000
Si      -3.51355752       0.94799655       1.13249649       0.00000000
Si      -2.62143567       0.00065160      -2.79025800       0.00000000
Si       2.77990479       2.63256174       0.02601783       0.00000000
Si      -2.65618224      -2.77218333      -0.00353540       0.00000000
