10
Lattice="16.28999089631971 0.0 0.0 0.0 16.28999089631971 0.0 0.0 0.0 34.32429715621058" Properties=species:S:1:pos:R:3:initial_magmoms:R:1 pbc="T T T"
Si       0.20815362       1.27829259      -2.05812033       0.00000000
Si      -1.68549372       1.45279107       1.07575840       0.00000000
Si       2.31062314       0.27285750       1.06171975       0.00000000
Si      -1.20624192      -2.32873695       0.65816877       0.00000000
Si      -0.66472974       1.20684465       3.15464494       0.00000000
Si      -0.76088961      -0.36531954      -3.44760298       0.00000000
Si      -2.55956625      -1.43259147      -2.06618655       0.00000000
Si       1.55176911       1.84813308       2.67544316       0.00000000
Si       2.35015734      -1.98076626       2.06350925       0.00000000
Si       0.14367780      -2.59615359       2.72404639       0.00000000
