10
Lattice="16.28999089631971 0.0 0.0 0.0 16.28999089631971 0.0 0.0 0.0 34.32429715621058" Properties=species:S:1:pos:R:3:initial_magmoms:R:1 pbc="T T T"
Si       2.25397629       0.06472017      -0.55423474       0.00000000
Si      -1.18369656      -0.96756084      -1.76437283       0.00000000
Si      -0.77742396       2.22164649      -0.11591322       0.00000000
Si      -0.57526506      -0.92923047       2.13898842       0.00000000
Si      -2.90967093      -1.57257144      -0.34605776       0.00000000
Si      -2.87666739      -0.65011761       1.87839821       0.00000000
Si       0.47768796       3.25205415       1.56838099       0.00000000
Si       2.17758271       0.78556896      -2.82286610       0.00000000
Si       3.05959499      -2.11660857      -0.32676749       0.00000000
Si       0.88730001       0.06574644       3.64057429       0.00000000
