10
Lattice="16.28999089631971 0.0 0.0 0.0 16.28999089631971 0.0 0.0 0.0 34.32429715621058" Properties=species:S:1:pos:R:3:initial_magmoms:R:1 pbc="T T T"
Si       1.34040636      -1.31590620      -1.49036182       0.00000000
Si      -0.78884325      -1.79644491       1.43118669       0.00000000
Si       0.88992270       1.92239009       1.25228836       0.00000000
Si      -1.39898520       1.37143948      -1.49094533       0.00000000
Si      -2.61586449      -2.62050714      -0.03370648       0.00000000
Si      -1.04793570       3.47226956       1.18693486       0.00000000
Si       2.60325603       2.79071225      -0.12435700       0.00000000
Si       2.65201200      -2.75649606      -0.05292810       0.00000000
Si      -2.84139954       2.69434061      -0.12665673       0.00000000
Si      -0.03499092      -2.67810858      -2.87184690       0.00000000
