10
Lattice="16.28999089631971 0.0 0.0 0.0 16.28999089631971 0.0 0.0 0.0 34.32429715621058" Properties=species:S:1:pos:R:3:initial_magmoms:R:1 pbc="T T T"
Si       1.37669138      -1.30131036      -1.44546561       0.00000000
Si      -1.31160564       1.44058986      -1.43743372       0.00000000
Si       1.97183024       0.87615765       1.13369784       0.00000000
Si      -1.81086156      -0.98894961       1.36346482       0.00000000
Si       3.47459903      -1.04146857       1.08962542       0.00000000
Si      -2.65201200       2.75649606       0.05292810       0.00000000
Si      -2.77990479      -2.63256174      -0.02601783       0.00000000
Si       0.03184695      -2.63210562      -2.81953664       0.00000000
Si       2.61764729      -2.83395501      -0.06216134       0.00000000
Si      -3.44085525       0.96005115       1.48411479       0.00000000
