10
Lattice="16.28999089631971 0.0 0.0 0.0 16.28999089631971 0.0 0.0 0.0 34.32429715621058" Properties=species:S:1:pos:R:3:initial_magmoms:R:1 pbc="T T T"
Si       0.90413084       0.88826112      -1.88982821       0.00000000
Si      -1.22286733       1.96551882       0.42843612       0.00000000
Si      -1.82226849      -1.50573357       0.06284782       0.00000000
Si       1.71740909       0.12960324       1.63167503       0.00000000
Si      -2.00737176      -0.82683153       2.27580515       0.00000000
Si       2.06702507       2.53029312      -0.66249363       0.00000000
Si       0.10729571      -0.36501003       3.37174624       0.00000000
Si       0.58031822       3.27945393       1.11890406       0.00000000
Si      -0.89364334       1.18486944      -3.38688327       0.00000000
Si      -2.88901914       1.30121262       1.93630333       0.00000000
