10
Lattice="16.28999089631971 0.0 0.0 0.0 16.28999089631971 0.0 0.0 0.0 34.32429715621058" Properties=species:S:1:pos:R:3:initial_magmoms:R:1 pbc="T T T"
Si       1.45712421      -1.83081681      -0.31729398       0.00000000
Si      -1.71740909      -0.12960324      -1.63167503       0.00000000
Si      -1.61011337      -0.49461327       1.74007122       0.00000000
Si       1.72561599       1.78484643      -0.38134315       0.00000000
Si       0.34961598       2.40068988      -2.29416866       0.00000000
Si      -1.13709087       3.14985069      -0.51277096       0.00000000
Si       1.63940931       1.90586484       2.30971757       0.00000000
Si      -0.54330408       2.93148324       1.84726606       0.00000000
Si       1.82412162      -2.31932133       1.93400360       0.00000000
Si      -2.94027642       1.83591558      -1.20323891       0.00000000
