10
Lattice="16.28999089631971 0.0 0.0 0.0 16.28999089631971 0.0 0.0 0.0 34.32429715621058" Properties=species:S:1:pos:R:3:initial_magmoms:R:1 pbc="T T T"
Si       1.45545774       1.43062038      -1.22911944       0.00000000
Si      -2.24943301       0.60947406      -0.65363796       0.00000000
Si       0.38864845      -1.99547613      -1.33631428       0.00000000
Si       0.82980771       0.78910389       2.20195711       0.00000000
Si      -1.47767797      -2.27292741       2.06072898       0.00000000
Si      -0.88289031       2.57113215       2.34116246       0.00000000
Si       0.12536621      -1.20534597       3.45447955       0.00000000
Si       3.63817113       0.40500198      -0.76666793       0.00000000
Si       1.00727097       3.67383483      -0.11038700       0.00000000
Si      -2.60766640      -0.32925348      -2.77175719       0.00000000
