10
Lattice="16.28999089631971 0.0 0.0 0.0 16.28999089631971 0.0 0.0 0.0 34.32429715621058" Properties=species:S:1:pos:R:3:initial_magmoms:R:1 pbc="T T T"
Si      -1.28474343       1.33651305       1.49048195       0.00000000
Si       1.10498328       1.68523308      -1.28526171       0.00000000
Si       1.40652747      -1.36950030       1.46601558       0.00000000
Si      -2.08023300      -0.80472600      -1.09433197       0.00000000
Si       2.27183598       0.28395099      -2.92253160       0.00000000
Si      -0.78703506       3.34933803      -1.42503032       0.00000000
Si      -2.58691390       2.69804754       0.09692844       0.00000000
Si       2.81057886      -2.63303415       0.03365156       0.00000000
Si      -2.64653856      -0.01656693       2.84922031       0.00000000
Si       2.82636387       2.71705797       0.02113348       0.00000000
