10
Lattice="16.28999089631971 0.0 0.0 0.0 16.28999089631971 0.0 0.0 0.0 34.32429715621058" Properties=species:S:1:pos:R:3:initial_magmoms:R:1 pbc="T T T"
Si      -0.70444150      -1.99444986       1.25252245       0.00000000
Si      -1.71269802       1.78202826       0.13920535       0.00000000
Si      -0.82980771      -0.78910389      -2.20195711       0.00000000
Si       2.08023300       0.80472600       1.09433197       0.00000000
Si      -1.93455050      -0.57200706       2.60760184       0.00000000
Si       0.79548957       2.14123905       2.58481392       0.00000000
Si       0.62565003       0.64151649      -3.43107655       0.00000000
Si      -3.42786302       0.60266484       1.23793118       0.00000000
Si       0.17746326       2.88473094      -2.31234411       0.00000000
Si      -0.50668090       3.50277354       1.19126041       0.00000000
