10
Lattice="16.28999089631971 0.0 0.0 0.0 16.28999089631971 0.0 0.0 0.0 34.32429715621058" Properties=species:S:1:pos:R:3:initial_magmoms:R:1 pbc="T T T"
Si      -1.36824494      -1.36016613      -1.33595045       0.00000000
Si      -1.35740237       1.35439947       1.35642833       0.00000000
Si       1.35516510      -1.35770634       1.35708050       0.00000000
Si       1.36179513       1.35307998      -1.35873836       0.00000000
Si       2.71254564       2.71186146      -0.00127000       0.00000000
Si      -2.71346507       2.71150308      -0.00659027       0.00000000
Si       2.71226871      -2.71526607      -0.00274595       0.00000000
Si      -0.00075911       2.71345788       2.71429829       0.00000000
Si       2.71347417      -0.00092853       2.71440126       0.00000000
Si      -2.71641356      -0.00187335       2.71433261       0.00000000
