10
Lattice="16.28999089631971 0.0 0.0 0.0 16.28999089631971 0.0 0.0 0.0 34.32429715621058" Properties=species:S:1:pos:R:3:initial_magmoms:R:1 pbc="T T T"
Si       1.35740237      -1.35439947      -1.35642833       0.00000000
Si      -1.35901119      -1.35627282       1.35790428       0.00000000
Si       1.35664326       1.35905841       1.35786995       0.00000000
Si      -1.35606270       1.35710361      -1.36301860       0.00000000
Si      -0.01084257      -2.71456560      -2.69237878       0.00000000
Si       2.71256747      -2.71210581       0.00065216       0.00000000
Si       2.71383809       0.00118917       2.71519072       0.00000000
Si      -0.00081598      -2.71409319       2.71501910       0.00000000
Si       2.71388696       2.71642266      -0.00078946       0.00000000
Si      -0.00170447       2.71640637       2.71501910       0.00000000
