10
Lattice="16.28999089631971 0.0 0.0 0.0 16.28999089631971 0.0 0.0 0.0 34.32429715621058" Properties=species:S:1:pos:R:3:initial_magmoms:R:1 pbc="T T T"
Si       0.60489494      -2.06107596       0.88302736       0.00000000
Si       2.03874074       1.12260906       0.06192107       0.00000000
Si      -0.95321912      -0.09055611      -2.16311842       0.00000000
Si      -1.59527223       1.26311031       1.25098403       0.00000000
Si      -0.77158725      -1.85561019       2.82942204       0.00000000
Si      -0.81630656       3.36960279       0.54273609       0.00000000
Si      -3.15969867      -0.70594344      -1.50258127       0.00000000
Si       2.97851084       0.72904266      -2.05056898       0.00000000
Si       1.49268365       3.35797173       0.36219019       0.00000000
Si      -3.71056131       1.01208141       0.08440349       0.00000000
