10
Lattice="16.28999089631971 0.0 0.0 0.0 16.28999089631971 0.0 0.0 0.0 34.32429715621058" Properties=species:S:1:pos:R:3:initial_magmoms:R:1 pbc="T T T"
Si       0.95321912       0.09055611       2.16311842       0.00000000
Si      -2.20647954      -0.61538733       0.66053714       0.00000000
Si       1.18485315      -1.42312698      -1.55633315       0.00000000
Si      -0.03953420       2.25362376      -1.00178950       0.00000000
Si      -2.35015734       1.98076626      -2.06350925       0.00000000
Si      -2.75734218       1.10263752       2.24752191       0.00000000
Si      -0.64205310       1.35366642       3.41410245       0.00000000
Si      -3.55639926      -0.34797069      -1.40534048       0.00000000
Si       0.81072072      -3.75280875      -0.70759578       0.00000000
Si       2.99195986       1.21316517       2.22503948       0.00000000
