10
Lattice="16.28999089631971 0.0 0.0 0.0 16.28999089631971 0.0 0.0 0.0 34.32429715621058" Properties=species:S:1:pos:R:3:initial_magmoms:R:1 pbc="T T T"
Si       1.36624882       1.35005656      -1.37232049       0.00000000
Si      -1.34873122      -1.36699832      -1.37513509       0.00000000
Si       1.41852343      -1.38984718       1.32025050       0.00000000
Si      -1.42599469       1.38617149       1.37183995       0.00000000
Si      -2.68884436      -2.72044696       0.00583513       0.00000000
Si      -2.71546222       2.71014124      -0.03346621       0.00000000
Si       2.72082748       2.71103719       0.02141837       0.00000000
Si      -2.70563935      -0.00743476      -2.73355423       0.00000000
Si       0.00821016       2.70823531      -2.73451531       0.00000000
Si       0.00986522      -2.72411221      -2.73451531       0.00000000
