10
Lattice="16.28999089631971 0.0 0.0 0.0 16.28999089631971 0.0 0.0 0.0 34.32429715621058" Properties=species:S:1:pos:R:3:initial_magmoms:R:1 pbc="T T T"
Si      -1.45545774      -1.43062038       1.22911944       0.00000000
Si      -0.59378679       0.21836745      -2.36003702       0.00000000
Si       2.18271339      -1.02561840       0.46245151       0.00000000
Si      -0.44818677       2.24321445       1.11873244       0.00000000
Si       2.26892007      -1.14663681      -2.22860921       0.00000000
Si       0.54330408      -2.93148324      -1.84726606       0.00000000
Si      -0.62565003      -0.64151649       3.43107655       0.00000000
Si      -0.14954220       3.45510900      -0.90417114       0.00000000
Si      -1.06680929      -3.42609651      -0.10719484       0.00000000
Si      -1.39940548       2.39969619      -2.58750426       0.00000000
