10
Lattice="16.28999089631971 0.0 0.0 0.0 16.28999089631971 0.0 0.0 0.0 34.32429715621058" Properties=species:S:1:pos:R:3:initial_magmoms:R:1 pbc="T T T"
Si      -1.34411559      -1.34607528       1.38862111       0.00000000
Si       1.37171574       1.36640750       1.38741976       0.00000000
Si       1.31113323      -1.44006858      -1.44204004       0.00000000
Si      -1.29610245       1.47118641      -1.46970887       0.00000000
Si       2.05638444       0.47276905      -2.73309226       0.00000000
Si      -2.69412201      -2.69682579       0.01256956       0.00000000
Si      -2.67697547       2.72467259       0.02605559       0.00000000
Si       2.74284504      -2.69640225       0.00867032       0.00000000
Si       2.72187981       2.72296214       0.05271529       0.00000000
Si      -2.70268109       0.00648342       2.74498079       0.00000000
