10
Lattice="16.28999089631971 0.0 0.0 0.0 16.28999089631971 0.0 0.0 0.0 34.32429715621058" Properties=species:S:1:pos:R:3:initial_magmoms:R:1 pbc="T T T"
Si       1.35000642       1.35075051       1.37605154       0.00000000
Si      -1.36256759      -1.36936998       1.36935830       0.00000000
Si      -1.36561382       1.41312492      -1.32702612       0.00000000
Si       1.41052214      -1.36625859      -1.37634330       0.00000000
Si       2.69412201       2.69682579      -0.01256956       0.00000000
Si      -0.00855908       2.70330921       2.73241123       0.00000000
Si       2.70738207      -0.01005093       2.73158745       0.00000000
Si       2.71269261      -2.72779308       0.01721021       0.00000000
Si      -2.65612391       0.13836726      -2.79725128       0.00000000
Si      -0.00650489      -2.72647359       2.73237690       0.00000000
