10
Lattice="16.28999089631971 0.0 0.0 0.0 16.28999089631971 0.0 0.0 0.0 34.32429715621058" Properties=species:S:1:pos:R:3:initial_magmoms:R:1 pbc="T T T"
Si       1.30701186      -1.34324082      -1.36047860       0.00000000
Si      -1.41852343       1.38984718      -1.32025050       0.00000000
Si       1.86354342       0.82816798       1.25582376       0.00000000
Si      -0.82393191      -1.89503199       1.25671619       0.00000000
Si      -0.29385531      -0.68582529       3.26654221       0.00000000
Si       3.39402150      -1.07777898       1.22043539       0.00000000
Si       2.49735474      -2.84783409      -0.01499973       0.00000000
Si       2.66510916       0.02498886      -2.69898964       0.00000000
Si      -0.04987998      -2.68706808      -2.69658694       0.00000000
Si      -0.05227461       2.73990374      -2.69257100       0.00000000
