10
Lattice="16.28999089631971 0.0 0.0 0.0 16.28999089631971 0.0 0.0 0.0 34.32429715621058" Properties=species:S:1:pos:R:3:initial_magmoms:R:1 pbc="T T T"
Si       1.17708282      -1.69300341       1.03309327       0.00000000
Si      -2.26407054       0.40795047       0.41532423       0.00000000
Si      -0.53007660      -1.20920670      -2.00982602       0.00000000
Si       1.90891107       1.51328303       0.29841561       0.00000000
Si       2.15739873       1.51399327      -2.01071845       0.00000000
Si      -0.17270658      -3.31695351       0.04218458       0.00000000
Si       0.29385531       0.68582529      -3.26654221       0.00000000
Si       3.34798596      -1.49765373       0.03744783       0.00000000
Si      -2.76875333       2.67006851       0.16805185       0.00000000
Si       0.97269219      -3.12683292      -2.05389844       0.00000000
