10
Lattice="16.28999089631971 0.0 0.0 0.0 16.28999089631971 0.0 0.0 0.0 34.32429715621058" Properties=species:S:1:pos:R:3:initial_magmoms:R:1 pbc="T T T"
Si      -1.17708282       1.69300341      -1.03309327       0.00000000
Si      -1.34978940      -1.62395010      -0.99090869       0.00000000
Si       0.12613347       0.31614003       2.34816081       0.00000000
Si       2.17090314       0.19534968      -0.99564544       0.00000000
Si       0.73182825       3.20628644      -0.73467767       0.00000000
Si      -0.20439063      -1.43382951      -3.08699171       0.00000000
Si      -1.70715942       0.48379671      -3.04291929       0.00000000
Si       2.82818835       2.27120067       0.16520293       0.00000000
Si       2.29721580      -0.49733370       2.83649285       0.00000000
Si       3.01257486      -2.03437665      -0.76711415       0.00000000
