10
Lattice="16.28999089631971 0.0 0.0 0.0 16.28999089631971 0.0 0.0 0.0 34.376317263855086" Properties=species:S:1:pos:R:3:initial_magmoms:R:1 pbc="T T T"
Si      -1.34661736      -1.35799793       1.36423179       0.00000000
Si       1.37502365      -1.30708191      -1.39890032       0.00000000
Si       1.36608207       1.35721764       1.36192857       0.00000000
Si      -1.30763539       1.40858001      -1.40178794       0.00000000
Si       0.68431788       2.13175827      -2.55069598       0.00000000
Si       2.35941369       0.27212445      -2.85437864       0.00000000
Si      -2.69205733       2.72707632      -0.00335513       0.00000000
Si      -2.70401419      -0.00133578       2.72388465       0.00000000
Si      -2.70872200      -2.72027429      -0.01872479       0.00000000
Si       0.00953359       2.71389771       2.72378152       0.00000000
