10
Lattice="16.28999089631971 0.0 0.0 0.0 16.28999089631971 0.0 0.0 0.0 34.376317263855086" Properties=species:S:1:pos:R:3:initial_magmoms:R:1 pbc="T T T"
Si      -1.35090756      -1.33278143      -1.37666915       0.00000000
Si      -1.44253881       1.22407458       1.41578942       0.00000000
Si       1.35845242       1.37829201      -1.37770044       0.00000000
Si       1.24598626      -1.51086070       1.47708243       0.00000000
Si       0.32071426       2.01656679       2.79087725       0.00000000
Si       2.26995937       0.28858387       2.71108978       0.00000000
Si       2.70967534      -2.69110378      -0.00532833       0.00000000
Si      -2.72855286      -2.68952365      -0.00192507       0.00000000
Si       0.00122990      -2.69281423      -2.73498133       0.00000000
Si      -2.70221193       2.74205823       0.00158131       0.00000000
