10
Lattice="16.28999089631971 0.0 0.0 0.0 16.28999089631971 0.0 0.0 0.0 34.376317263855086" Properties=species:S:1:pos:R:3:initial_magmoms:R:1 pbc="T T T"
Si      -0.98982927       1.46922768       1.50011457       0.00000000
Si       1.34622189      -1.29285585       1.52493429       0.00000000
Si       0.67183218       0.56459511      -2.27096954       0.00000000
Si       1.94487939      -1.41633405      -2.06539905       0.00000000
Si       1.65099150      -2.84175792      -0.16156878       0.00000000
Si      -1.51141878       3.19196034       0.06335559       0.00000000
Si      -2.33663923       0.00672777       2.79167276       0.00000000
Si      -0.51008877      -3.74222025      -0.73695990       0.00000000
Si       0.46867959       2.69184105       2.89882036       0.00000000
Si       2.26124748       2.30645223      -2.34298797       0.00000000
