10
Lattice="16.28999089631971 0.0 0.0 0.0 16.28999089631971 0.0 0.0 0.0 34.376317263855086" Properties=species:S:1:pos:R:3:initial_magmoms:R:1 pbc="T T T"
Si       1.68678063       0.93997372      -1.35457345       0.00000000
Si      -1.03553901      -1.63973415      -1.35089518       0.00000000
Si       1.31706279      -1.22606589       1.54398565       0.00000000
Si      -1.38368889       1.46843761       1.50322219       0.00000000
Si       2.56350843      -2.57764719       0.12191568       0.00000000
Si      -2.65924476      -2.53566786       0.12086032       0.00000000
Si       0.70141482      -3.42666570      -1.26505747       0.00000000
Si       3.43236816      -0.91416385      -1.48888180       0.00000000
Si       2.71577106       2.77510738       0.05414273       0.00000000
Si      -0.02891475      -2.58918051       2.90109466       0.00000000
