10
Lattice="16.28999089631971 0.0 0.0 0.0 16.28999089631971 0.0 0.0 0.0 34.376317263855086" Properties=species:S:1:pos:R:3:initial_magmoms:R:1 pbc="T T T"
Si       1.34861652       1.35837423       1.34940871       0.00000000
Si       1.35462753      -1.35736099      -1.35851844       0.00000000
Si      -1.35819504       1.35803214      -1.36071853       0.00000000
Si      -1.34964279      -1.36587577       1.38574450       0.00000000
Si      -0.16004925       2.58173694       2.67300080       0.00000000
Si       2.62158228      -0.04038291       2.71311798       0.00000000
Si      -2.71417464      -2.71180664       0.00367827       0.00000000
Si      -0.00068418      -2.71387160      -2.71624623       0.00000000
Si       2.71728603      -2.71331846       0.00237197       0.00000000
Si       2.71451673       0.00078192      -2.71648686       0.00000000
