10
Lattice="16.28999089631971 0.0 0.0 0.0 16.28999089631971 0.0 0.0 0.0 34.376317263855086" Properties=species:S:1:pos:R:3:initial_magmoms:R:1 pbc="T T T"
Si       2.19885678       0.40165276       0.75806697       0.00000000
Si      -1.21340952       1.47803080       1.39973567       0.00000000
Si      -0.24006573      -2.35786414       0.08095627       0.00000000
Si      -0.59399856       0.52210102      -2.28141995       0.00000000
Si       0.89661789      -2.81525476      -1.93225950       0.00000000
Si       1.95763446       2.71809076       1.31393233       0.00000000
Si       3.39120333       0.26300857      -1.20905013       0.00000000
Si      -2.58141114      -2.51436217       0.34414150       0.00000000
Si      -3.60965223      -0.53076404      -0.48412195       0.00000000
Si      -0.21118356       3.60379435       0.79887168       0.00000000
