10
Lattice="16.28999089631971 0.0 0.0 0.0 16.28999089631971 0.0 0.0 0.0 34.376317263855086" Properties=species:S:1:pos:R:3:initial_magmoms:R:1 pbc="T T T"
Si      -2.11120029      -1.05600318       0.10883548       0.00000000
Si       1.10978883       0.34841378       2.10510372       0.00000000
Si       1.56950892      -1.52438955      -1.00702040       0.00000000
Si      -0.33795234       2.18890685      -0.96693759       0.00000000
Si      -2.09218986      -2.11768764       2.28004489       0.00000000
Si       1.79639604       3.24189245      -0.94136160       0.00000000
Si       3.34824660       1.09111560       1.77883791       0.00000000
Si       3.11875308      -0.34589746      -2.39386494       0.00000000
Si       0.61983450      -2.76238068      -2.79596495       0.00000000
Si      -2.76964209      -2.23930878      -1.87220404       0.00000000
