10
Lattice="16.28999089631971 0.0 0.0 0.0 16.28999089631971 0.0 0.0 0.0 34.376317263855086" Properties=species:S:1:pos:R:3:initial_magmoms:R:1 pbc="T T T"
Si      -1.35729909      -1.35685926      -1.35504643       0.00000000
Si       1.35742941       1.35804843      -1.35446203       0.00000000
Si      -1.35927018       1.35980775       1.35215882       0.00000000
Si       1.35819504      -1.35803214       1.36071853       0.00000000
Si       2.70681156       0.00034209       2.71012724       0.00000000
Si      -2.71484253       0.00074934      -2.71277422       0.00000000
Si       0.00027693      -2.71444342      -2.71328986       0.00000000
Si       2.71282257      -2.71539313       0.00220009       0.00000000
Si       0.00006516       2.71538010      -2.71308360       0.00000000
Si       2.71531494       0.00039096      -2.71315236       0.00000000
