10
Lattice="16.28999089631971 0.0 0.0 0.0 16.28999089631971 0.0 0.0 0.0 34.376317263855086" Properties=species:S:1:pos:R:3:initial_magmoms:R:1 pbc="T T T"
Si       1.20954879      -1.49392332       1.30925715       0.00000000
Si      -1.34786718      -1.35782037      -1.37230335       0.00000000
Si       1.37095011       1.36176255      -1.36831570       0.00000000
Si      -1.50669468       1.21746573       1.49361744       0.00000000
Si      -1.43425305      -1.54960254       1.97543618       0.00000000
Si       2.74105314      -0.20487933       2.47667754       0.00000000
Si      -2.68887627       2.70658350      -0.00220009       0.00000000
Si       2.69558775       2.72142369      -0.01663815       0.00000000
Si      -2.71016730      -2.71316466       0.01024415       0.00000000
Si      -2.70378162      -0.00312768      -2.72349963       0.00000000
