10
Lattice="16.28999089631971 0.0 0.0 0.0 16.28999089631971 0.0 0.0 0.0 34.376317263855086" Properties=species:S:1:pos:R:3:initial_magmoms:R:1 pbc="T T T"
Si      -1.35632169      -1.35694071      -1.35734965       0.00000000
Si      -1.35739683       1.35698958       1.35738402       0.00000000
Si       1.35736425       1.35816246      -1.35683400       0.00000000
Si       1.35814617      -1.35809730       1.35810593       0.00000000
Si      -0.00091224       2.71295289       2.71493993       0.00000000
Si       2.71451673      -0.00104256       2.71339299       0.00000000
Si      -2.71455094       2.71453302      -0.00006875       0.00000000
Si      -0.00127062       2.71539639      -2.71418365       0.00000000
Si       2.71490769       2.71505430       0.00013751       0.00000000
Si      -2.71471058      -2.71536381      -0.00013751       0.00000000
