10
Lattice="16.28999089631971 0.0 0.0 0.0 16.28999089631971 0.0 0.0 0.0 34.376317263855086" Properties=species:S:1:pos:R:3:initial_magmoms:R:1 pbc="T T T"
Si       1.36034532      -1.35062019       1.35587146       0.00000000
Si      -1.35637056      -1.35705474      -1.35528707       0.00000000
Si      -1.35433431       1.35653346       1.36082166       0.00000000
Si       1.35822762       1.35829278      -1.35604334       0.00000000
Si       2.68498296       0.00904095       2.70754901       0.00000000
Si      -2.69948106      -0.00579924       2.72198707       0.00000000
Si      -2.71451673       0.00104256      -2.71339299       0.00000000
Si       0.00086337      -2.71463076      -2.71335861       0.00000000
Si       0.00039096       2.71609686      -2.71325549       0.00000000
Si      -2.71542897       2.71399545       0.00154694       0.00000000
