10
Lattice="16.28999089631971 0.0 0.0 0.0 16.28999089631971 0.0 0.0 0.0 34.376317263855086" Properties=species:S:1:pos:R:3:initial_magmoms:R:1 pbc="T T T"
Si      -1.69857459       1.54751742      -0.26101952       0.00000000
Si       0.57896289      -1.33092558      -1.82328651       0.00000000
Si      -0.47904003      -1.38095217       1.85058132       0.00000000
Si       2.08933911       1.16328519       0.19622013       0.00000000
Si      -3.12049611       0.26738406      -1.65243612       0.00000000
Si       1.69758090      -1.86126282       2.53683613       0.00000000
Si      -2.33952093       1.87538625       1.99987775       0.00000000
Si      -1.42614063       0.14775030       3.31810713       0.00000000
Si       3.12940674      -0.07478739       1.88732963       0.00000000
Si       2.32140645      -2.74799268      -1.02805872       0.00000000
