10
Lattice="16.28999089631971 0.0 0.0 0.0 16.28999089631971 0.0 0.0 0.0 34.376317263855086" Properties=species:S:1:pos:R:3:initial_magmoms:R:1 pbc="T T T"
Si       2.31086356       0.49348926       0.13960230       0.00000000
Si      -1.10939202       2.09179890      -0.13499587       0.00000000
Si      -1.06325874      -0.61730955       2.07330561       0.00000000
Si      -0.15368800      -1.53139032      -1.97285795       0.00000000
Si      -1.62449811       0.34484301      -2.91322263       0.00000000
Si      -3.12319440       0.87749343      -1.10313664       0.00000000
Si       1.20267115      -3.28883371      -0.89667236       0.00000000
Si       0.18423013      -2.35990298       2.92398243       0.00000000
Si       2.53986838       2.09520351       1.85123447       0.00000000
Si      -3.26341872      -1.21490820       1.54311937       0.00000000
