10
Lattice="16.28999089631971 0.0 0.0 0.0 16.28999089631971 0.0 0.0 0.0 34.376317263855086" Properties=species:S:1:pos:R:3:initial_magmoms:R:1 pbc="T T T"
Si       1.69857459      -1.54751742       0.26101952       0.00000000
Si      -1.42192152      -1.28013336      -1.39141660       0.00000000
Si      -0.64094634       0.32786883       2.26089727       0.00000000
Si       0.80022996       1.69859088      -1.46099430       0.00000000
Si      -1.31328351       2.74390389      -1.97096725       0.00000000
Si      -0.12474882      -1.19263977      -3.47335066       0.00000000
Si       1.21953456      -2.92846959       2.11160084       0.00000000
Si       3.78791370      -0.38423223       0.45723965       0.00000000
Si       1.68818157       0.44294139      -3.43013961       0.00000000
Si       0.27243396      -1.39976712       3.57912665       0.00000000
