10
Lattice="16.28999089631971 0.0 0.0 0.0 16.28999089631971 0.0 0.0 0.0 34.376317263855086" Properties=species:S:1:pos:R:3:initial_magmoms:R:1 pbc="T T T"
Si      -1.35567009       1.35072770       1.35721214       0.00000000
Si       1.35236322       1.34807243      -1.36839476       0.00000000
Si       1.35707103      -1.36178453       1.35611210       0.00000000
Si      -1.36726857      -1.35666119      -1.35776216       0.00000000
Si       2.57878845      -0.09435982      -2.78030997       0.00000000
Si      -2.71277370       2.71079609      -0.00739091       0.00000000
Si       2.71676475       2.70752180      -0.00330013       0.00000000
Si       0.00162900       2.71035626       2.71408052       0.00000000
Si      -2.71340901      -0.00447812       2.71394301       0.00000000
Si       2.71599912      -0.00407576       2.71380551       0.00000000
