10
Lattice="16.28999089631971 0.0 0.0 0.0 16.28999089631971 0.0 0.0 0.0 34.376317263855086" Properties=species:S:1:pos:R:3:initial_magmoms:R:1 pbc="T T T"
Si       1.41773499      -1.89306090      -0.02894488       0.00000000
Si      -1.82640222      -1.50224751      -0.40670644       0.00000000
Si      -0.52794261       1.83676266      -1.53218769       0.00000000
Si       1.29427308       0.85512726       2.15446814       0.00000000
Si      -1.61437158      -1.90070091       2.06859605       0.00000000
Si       2.51256960       2.26509192       0.35356062       0.00000000
Si      -0.58538115      -0.06556725       3.47731223       0.00000000
Si       1.27260738      -2.55292808      -2.19898549       0.00000000
Si       1.44334287       3.10427127      -1.53170642       0.00000000
Si       3.61523970      -1.26499995       0.18999801       0.00000000
