10
Lattice="16.28999089631971 0.0 0.0 0.0 16.28999089631971 0.0 0.0 0.0 34.376317263855086" Properties=species:S:1:pos:R:3:initial_magmoms:R:1 pbc="T T T"
Si       2.24982819      -0.60587397       0.31182775       0.00000000
Si      -0.65893050       1.76371830       1.41231741       0.00000000
Si      -0.90728784      -2.14760844       0.55730917       0.00000000
Si      -0.25925535       0.89832834      -2.22676157       0.00000000
Si       2.26074249      -1.73369583      -1.78959770       0.00000000
Si      -3.21903432      -1.79203032       0.55411217       0.00000000
Si      -0.52447284       0.93408489       3.63760080       0.00000000
Si       1.16304084      -0.56462769      -3.57362643       0.00000000
Si      -2.83193505       2.45873115       0.69835528       0.00000000
Si      -0.31328928      -2.66970946       2.83872911       0.00000000
