10
Lattice="16.28999089631971 0.0 0.0 0.0 16.28999089631971 0.0 0.0 0.0 34.376317263855086" Properties=species:S:1:pos:R:3:initial_magmoms:R:1 pbc="T T T"
Si      -2.20258719       0.58787352      -0.33850379       0.00000000
Si       0.31773645      -2.05954470      -1.00282649       0.00000000
Si       0.06903702       0.17936919       2.38417082       0.00000000
Si       1.53068985       1.31160564      -1.29402843       0.00000000
Si       3.16651536       1.05402816       0.34087575       0.00000000
Si      -2.01644136       2.46951513       1.06521954       0.00000000
Si       2.04032250       1.44687780       2.38465208       0.00000000
Si      -3.27075507      -1.49177304       0.01096605       0.00000000
Si       0.40083174      -1.53784116      -3.27754305       0.00000000
Si      -2.27781441       1.33209846      -2.51638221       0.00000000
