10
Lattice="16.28999089631971 0.0 0.0 0.0 16.28999089631971 0.0 0.0 0.0 34.376317263855086" Properties=species:S:1:pos:R:3:initial_magmoms:R:1 pbc="T T T"
Si       0.84186720       1.83040956       1.35514066       0.00000000
Si      -1.87965423      -0.92069451       1.32284409       0.00000000
Si       1.75270626      -1.81467342       0.28070414       0.00000000
Si       1.21829652       1.40996466      -1.80090752       0.00000000
Si      -1.29427308      -0.85512726      -2.15446814       0.00000000
Si       0.12346191      -2.74818816      -2.18341301       0.00000000
Si       2.17523628       0.51660477       2.80045591       0.00000000
Si      -0.55873071      -2.21713416       2.80205441       0.00000000
Si       2.32096662      -2.12012721      -1.96447012       0.00000000
Si       3.55965822      -0.80189154       1.40202311       0.00000000
