10
Lattice="16.28999089631971 0.0 0.0 0.0 16.28999089631971 0.0 0.0 0.0 34.376317263855086" Properties=species:S:1:pos:R:3:initial_magmoms:R:1 pbc="T T T"
Si       1.27286802       1.38175038      -1.40221218       0.00000000
Si       1.38297213      -1.26858375       1.41258898       0.00000000
Si      -1.35055503       1.43405757       1.39126878       0.00000000
Si      -0.73072053      -2.08230183      -1.11980744       0.00000000
Si       0.37387179       0.63900783      -3.49414976       0.00000000
Si      -1.21764492      -1.32323670      -3.28820113       0.00000000
Si       0.01635516      -2.63106306       2.76868389       0.00000000
Si       2.77345395      -2.62808199       0.04626711       0.00000000
Si      -2.76016131      -2.67963984       0.03594046       0.00000000
Si      -2.69855253       0.08840583       2.77229341       0.00000000
