10
Lattice="16.28999089631971 0.0 0.0 0.0 16.28999089631971 0.0 0.0 0.0 34.376317263855086" Properties=species:S:1:pos:R:3:initial_magmoms:R:1 pbc="T T T"
Si       1.35597960       1.35722565      -1.35793404       0.00000000
Si      -1.35726651       1.35707175       1.35765903       0.00000000
Si       1.35777150      -1.35751086       1.35714339       0.00000000
Si      -1.35817875      -1.35754344      -1.35683400       0.00000000
Si       0.00042354      -2.71060713      -2.71672750       0.00000000
Si       2.71480995      -0.00226431       2.71363363       0.00000000
Si      -0.00195480       2.71358235       2.71538682       0.00000000
Si      -2.71450044       2.71453206      -0.00010313       0.00000000
Si      -2.71433754      -0.00076563      -2.71469929       0.00000000
Si       2.71490769       2.71493442      -0.00024063       0.00000000
