10
Lattice="16.28999089631971 0.0 0.0 0.0 16.28999089631971 0.0 0.0 0.0 34.376317263855086" Properties=species:S:1:pos:R:3:initial_magmoms:R:1 pbc="T T T"
Si      -1.72805949      -1.01343348      -1.32605141       0.00000000
Si       1.35610992      -1.30245066       1.49643974       0.00000000
Si       1.55589048       1.28756160      -1.34121137       0.00000000
Si      -1.34791605       1.43410644       1.50674233       0.00000000
Si      -3.40315530       0.84620034      -1.02236875       0.00000000
Si      -2.71244953      -2.59263984       0.12942691       0.00000000
Si       2.73979881      -2.77088827      -0.00678245       0.00000000
Si      -0.00345348      -2.64570288       2.89194024       0.00000000
Si      -2.68930958       2.85413832       0.09430117       0.00000000
Si       2.71135647       0.07050312       2.88757445       0.00000000
