10
Lattice="16.28999089631971 0.0 0.0 0.0 16.28999089631971 0.0 0.0 0.0 34.376317263855086" Properties=species:S:1:pos:R:3:initial_magmoms:R:1 pbc="T T T"
Si      -1.35692442       1.35089712      -1.36233421       0.00000000
Si       1.34519562       1.35083196       1.38526323       0.00000000
Si       1.36032903      -1.36215351      -1.36089041       0.00000000
Si      -1.36552554      -1.36200690       1.39141660       0.00000000
Si       2.53042344      -0.16006554       2.80184330       0.00000000
Si      -2.71059084       2.71293344       0.00140943       0.00000000
Si       0.00289962       2.71086849      -2.71851506       0.00000000
Si      -2.70974376      -2.72067435      -0.00189070       0.00000000
Si      -2.71197549      -0.00400734      -2.71892758       0.00000000
Si       2.72086983       2.71142163       0.00010313       0.00000000
