10
Lattice="16.28999089631971 0.0 0.0 0.0 16.28999089631971 0.0 0.0 0.0 34.376317263855086" Properties=species:S:1:pos:R:3:initial_magmoms:R:1 pbc="T T T"
Si      -1.13704200      -1.62078984      -1.30262252       0.00000000
Si       1.63556487       1.22981732      -1.31757622       0.00000000
Si       1.46781045      -1.25318970       1.52751251       0.00000000
Si      -1.94639436       1.25179240       1.03074007       0.00000000
Si      -0.38204937      -0.77623479       3.45000913       0.00000000
Si      -2.32226982      -0.10989234      -2.71920259       0.00000000
Si       3.55317480       0.30779955       1.29818797       0.00000000
Si       0.39895839       2.60336584      -2.74570675       0.00000000
Si       2.99343411       2.39155512       0.13489274       0.00000000
Si      -3.61765062       1.15655742      -0.99464492       0.00000000
