10
Lattice="16.28999089631971 0.0 0.0 0.0 16.28999089631971 0.0 0.0 0.0 34.376317263855086" Properties=species:S:1:pos:R:3:initial_magmoms:R:1 pbc="T T T"
Si       1.37419182      -0.90438822      -1.67718708       0.00000000
Si       0.20527029       2.38118165       0.29209573       0.00000000
Si      -2.28931515      -0.69708168      -0.43111364       0.00000000
Si       0.78320691      -0.97008579       2.09640650       0.00000000
Si      -0.98707626       2.51982584       2.25921283       0.00000000
Si       0.01096317       0.72677039       3.63729141       0.00000000
Si      -3.42599877      -0.23969106       1.58210213       0.00000000
Si       2.96636013       0.81106022      -2.22150199       0.00000000
Si      -0.59277681      -2.88960165       2.48523725       0.00000000
Si       1.96325451      -3.16765566      -1.10323977       0.00000000
