10
Lattice="16.28999089631971 0.0 0.0 0.0 16.28999089631971 0.0 0.0 0.0 34.376317263855086" Properties=species:S:1:pos:R:3:initial_magmoms:R:1 pbc="T T T"
Si      -0.94967442      -1.23799113      -1.78894455       0.00000000
Si       1.54924416       1.17849209      -1.38684454       0.00000000
Si      -1.56950892       1.52438955       1.00702040       0.00000000
Si       0.96435171      -1.77200991       1.42335221       0.00000000
Si       0.94550418      -2.43787995      -2.53889871       0.00000000
Si      -0.45972009       1.87280333       3.11212412       0.00000000
Si       2.32148790      -0.51836409      -2.92772945       0.00000000
Si      -3.68070921       0.46838637       1.11585588       0.00000000
Si      -0.76299102      -3.43473021       1.73958013       0.00000000
Si      -1.88771778       0.21203064      -3.44203382       0.00000000
