10
Lattice="16.28999089631971 0.0 0.0 0.0 16.28999089631971 0.0 0.0 0.0 34.376317263855086" Properties=species:S:1:pos:R:3:initial_magmoms:R:1 pbc="T T T"
Si      -1.35647675      -1.35785295       1.35666212       0.00000000
Si      -1.35766592       1.35799956      -1.35583709       0.00000000
Si       1.35835830       1.35702216       1.35683400       0.00000000
Si       1.35654848      -1.35668007      -1.36185295       0.00000000
Si      -0.00362483       2.70195714      -2.71827787       0.00000000
Si      -2.71265183       2.71373481      -0.00096254       0.00000000
Si       0.00143961       2.71407690       2.71418365       0.00000000
Si      -2.71432970      -0.00024435       2.71414927       0.00000000
Si      -2.71354778      -2.71523349       0.00010313       0.00000000
Si      -2.70159092       0.01317861      -2.72713665       0.00000000
