10
Lattice="16.28999089631971 0.0 0.0 0.0 16.28999089631971 0.0 0.0 0.0 34.376317263855086" Properties=species:S:1:pos:R:3:initial_magmoms:R:1 pbc="T T T"
Si       1.35786924       1.16173780       1.45246897       0.00000000
Si      -1.23660648       1.37354853      -1.42813052       0.00000000
Si      -1.63556487      -1.22981732       1.31757622       0.00000000
Si       1.47048201      -1.33467605      -1.41561754       0.00000000
Si       1.91760993      -0.92201777       2.61576420       0.00000000
Si      -0.02278971       2.52549099       2.75966354       0.00000000
Si       2.75649606       2.57892219       0.00209696       0.00000000
Si      -0.16775442      -2.48300702       2.84508874       0.00000000
Si      -2.67786423       2.69381556      -0.07604046       0.00000000
Si      -2.58216048       0.02088001      -2.78678647       0.00000000
