10
Lattice="16.28999089631971 0.0 0.0 0.0 16.28999089631971 0.0 0.0 0.0 34.376317263855086" Properties=species:S:1:pos:R:3:initial_magmoms:R:1 pbc="T T T"
Si       0.92580957       0.84730806       2.00214659       0.00000000
Si       1.87035264      -0.34356980      -1.46085679       0.00000000
Si      -1.59216831      -1.71544844       0.54431491       0.00000000
Si      -1.27402461       1.74634664      -1.11668091       0.00000000
Si      -2.68899030      -2.19274544      -1.47622302       0.00000000
Si      -2.96636013      -0.81106022       2.22150199       0.00000000
Si       1.55753577      -0.90780653       3.37740631       0.00000000
Si      -0.57102966       2.22141191       3.10057367       0.00000000
Si      -0.00107514       3.77158460      -0.95084947       0.00000000
Si       2.72438100       1.71943556      -2.19290088       0.00000000
