10
Lattice="16.28999089631971 0.0 0.0 0.0 16.28999089631971 0.0 0.0 0.0 34.376317263855086" Properties=species:S:1:pos:R:3:initial_magmoms:R:1 pbc="T T T"
Si      -0.37805832      -0.23969106      -2.27090079       0.00000000
Si       2.20015998       0.59759865       0.53018624       0.00000000
Si      -0.92706390      -1.49613713       1.54920398       0.00000000
Si      -0.32195556       2.39256117      -0.18367277       0.00000000
Si       0.14022432       2.09240163      -2.64625601       0.00000000
Si      -2.02238721       0.19008801       2.77774549       0.00000000
Si       1.67037660       2.27717910       2.16952497       0.00000000
Si      -2.76242562      -2.54539281       0.48731895       0.00000000
Si       3.26341872       1.21490820      -1.54311937       0.00000000
Si       3.44764885      -1.14499478       1.38086306       0.00000000
