10
Lattice="16.28999089631971 0.0 0.0 0.0 16.28999089631971 0.0 0.0 0.0 34.376317263855086" Properties=species:S:1:pos:R:3:initial_magmoms:R:1 pbc="T T T"
Si      -1.35691869       1.35705474       1.35734965       0.00000000
Si      -1.35835830      -1.35702216      -1.35683400       0.00000000
Si       1.35744407      -1.35765747       1.35789967       0.00000000
Si       1.35838889       1.35842310      -1.35721214       0.00000000
Si      -0.00321239       2.71344159       2.71497430       0.00000000
Si      -2.71602423       0.00097740      -2.71267109       0.00000000
Si       2.71484090      -0.00118917       2.71421802       0.00000000
Si      -0.00098392      -2.71477737       2.71428678       0.00000000
Si      -2.71483506      -2.71487511      -0.00017188       0.00000000
Si      -2.71506312      -0.00143352       2.71483680       0.00000000
