10
Lattice="16.28999089631971 0.0 0.0 0.0 16.28999089631971 0.0 0.0 0.0 34.376317263855086" Properties=species:S:1:pos:R:3:initial_magmoms:R:1 pbc="T T T"
Si      -1.35239810       1.35718506       1.35573396       0.00000000
Si      -1.35629952      -1.35769005      -1.35683400       0.00000000
Si       1.35842799       1.35711990      -1.35638711       0.00000000
Si       1.35614739      -1.36000323       1.35745277       0.00000000
Si      -2.71407920       2.71334385       0.00055002       0.00000000
Si      -2.71385114      -0.00009774      -2.71445866       0.00000000
Si       0.00107677      -2.71494190      -2.71411489       0.00000000
Si       0.00098392       2.71477737      -2.71428678       0.00000000
Si       2.71582482       2.71358820      -0.00006875       0.00000000
Si       2.71616691      -0.00016290      -2.71380551       0.00000000
