10
Lattice="16.28999089631971 0.0 0.0 0.0 16.28999089631971 0.0 0.0 0.0 34.376317263855086" Properties=species:S:1:pos:R:3:initial_magmoms:R:1 pbc="T T T"
Si       1.35687555      -1.35681039       1.35683400       0.00000000
Si      -1.35754344       1.35832536       1.35710901       0.00000000
Si      -1.35866745      -1.35583299      -1.35851844       0.00000000
Si       1.35855342       1.35716877      -1.35827781       0.00000000
Si       2.71353933       0.00143352      -2.71315236       0.00000000
Si      -2.71207323      -0.00158013      -2.71672750       0.00000000
Si       2.71450044      -0.00097740       2.71435553       0.00000000
Si      -0.00118917       2.71459818       2.71442428       0.00000000
Si       2.71472850      -2.71441899      -0.00065315       0.00000000
Si      -0.00096111      -2.71502172       2.71414927       0.00000000
