10
Lattice="16.28999089631971 0.0 0.0 0.0 16.28999089631971 0.0 0.0 0.0 34.376317263855086" Properties=species:S:1:pos:R:3:initial_magmoms:R:1 pbc="T T T"
Si       0.48620763      -0.78719796      -2.20293877       0.00000000
Si       0.00255753      -1.81672596       1.64470144       0.00000000
Si       2.32506423       0.80071866       0.17724439       0.00000000
Si      -0.72612675       2.31676380       0.42960108       0.00000000
Si      -1.98977463      -1.70134389      -0.70849629       0.00000000
Si      -1.40636457       1.87416450       2.63583998       0.00000000
Si       0.53234091      -3.49630641       0.00536271       0.00000000
Si       1.59559965      -2.87899686      -2.06794290       0.00000000
Si      -2.90382282       0.06206490       2.75870100       0.00000000
Si       2.44409363       3.17273814      -0.53379575       0.00000000
