10
Lattice="16.28999089631971 0.0 0.0 0.0 16.28999089631971 0.0 0.0 0.0 34.376317263855086" Properties=species:S:1:pos:R:3:initial_magmoms:R:1 pbc="T T T"
Si      -0.93068028      -1.77171669      -1.48107008       0.00000000
Si       1.86080670       0.95376321      -1.44109040       0.00000000
Si      -1.76624325       1.94504229      -0.21258326       0.00000000
Si       0.17969499      -1.66565250       2.12899527       0.00000000
Si       1.93324833      -1.81330506      -0.95927167       0.00000000
Si      -2.07579072      -0.27271089      -2.93391719       0.00000000
Si       0.67862511       2.44288098      -2.93690793       0.00000000
Si      -3.47368679      -1.19263977       1.38306315       0.00000000
Si      -3.51112121       1.05223626      -1.53050325       0.00000000
Si      -0.62534052       3.67461675      -1.46501633       0.00000000
