10
Lattice="16.28999089631971 0.0 0.0 0.0 16.28999089631971 0.0 0.0 0.0 34.376317263855086" Properties=species:S:1:pos:R:3:initial_magmoms:R:1 pbc="T T T"
Si      -1.14511044       1.49900580      -1.45284711       0.00000000
Si       1.58801436      -1.20515049      -1.44339362       0.00000000
Si      -0.80301555      -1.93043016       1.34896182       0.00000000
Si       0.93068028       1.77171669       1.48107008       0.00000000
Si       2.86392861      -0.04158837       0.52179841       0.00000000
Si      -2.56626863      -2.72292237      -0.02612602       0.00000000
Si      -2.47382288       0.14848335      -2.82133469       0.00000000
Si       1.11037527       0.10606419       3.61006535       0.00000000
Si       0.23472261      -2.56870494      -2.81961587       0.00000000
Si      -2.58044093       2.82395295      -0.04943317       0.00000000
