10
Lattice="16.28999089631971 0.0 0.0 0.0 16.28999089631971 0.0 0.0 0.0 34.376317263855086" Properties=species:S:1:pos:R:3:initial_magmoms:R:1 pbc="T T T"
Si       0.54913590       1.33434648       1.84167785       0.00000000
Si      -1.59228234      -1.76383233       0.03702331       0.00000000
Si      -1.13244822       1.75462848      -1.15476989       0.00000000
Si       2.12718078      -0.26608086      -1.05270655       0.00000000
Si       1.36792017       3.09767382       0.27648887       0.00000000
Si       1.35729909      -1.01105514      -3.16592308       0.00000000
Si       3.00687336       1.93259673      -0.88721887       0.00000000
Si      -0.80982477      -3.51217287      -1.30331004       0.00000000
Si      -1.42449534      -2.92451112       2.09190320       0.00000000
Si      -2.97067698       2.53762362       0.04836751       0.00000000
