10
Lattice="16.28999089631971 0.0 0.0 0.0 16.28999089631971 0.0 0.0 0.0 34.376317263855086" Properties=species:S:1:pos:R:3:initial_magmoms:R:1 pbc="T T T"
Si       1.15515648       0.99887022       1.77436898       0.00000000
Si      -1.76337621      -1.02467358       1.15239793       0.00000000
Si       1.14297156      -1.90197153      -0.78305857       0.00000000
Si      -0.48123918       1.84104693      -1.41400185       0.00000000
Si      -1.32631551       0.66642390      -3.27967438       0.00000000
Si       2.69190621      -2.19344850       1.07525743       0.00000000
Si      -3.53786220      -0.98197749      -0.31942492       0.00000000
Si       2.69527824       2.40810183       0.72410315       0.00000000
Si       2.07309798      -0.74212353       3.05203428       0.00000000
Si       1.53463203       3.20971644      -1.22788836       0.00000000
