10
Lattice="16.28999089631971 0.0 0.0 0.0 16.28999089631971 0.0 0.0 0.0 34.376317263855086" Properties=species:S:1:pos:R:3:initial_magmoms:R:1 pbc="T T T"
Si       1.54012176       1.40923161      -1.05026583       0.00000000
Si      -1.15515648      -0.99887022      -1.77436898       0.00000000
Si       0.91794150      -1.74099375       1.27766530       0.00000000
Si      -1.62206046       1.27653327       1.19670903       0.00000000
Si      -3.21357717      -0.68571126       1.40265766       0.00000000
Si      -2.91853269      -2.02354380      -0.62197106       0.00000000
Si       1.53674973      -3.19231872      -0.69911155       0.00000000
Si      -1.63639566       0.84217671      -3.18837083       0.00000000
Si       3.10895206      -0.08514783      -2.05828315       0.00000000
Si       0.37947555       2.21084622      -3.00225735       0.00000000
