10
Lattice="16.28999089631971 0.0 0.0 0.0 16.28999089631971 0.0 0.0 0.0 34.376317263855086" Properties=species:S:1:pos:R:3:initial_magmoms:R:1 pbc="T T T"
Si      -1.34846991      -1.35135324      -1.36166388       0.00000000
Si       1.35630540      -1.35654975       1.35765903       0.00000000
Si      -1.35769005       1.35694071       1.35717776       0.00000000
Si       1.34460918       1.36365219      -1.39052625       0.00000000
Si       2.71563164      -2.71205694      -0.00264698       0.00000000
Si       2.71417694       2.71373481      -0.00550021       0.00000000
Si      -2.71326240       2.71538010      -0.00477831       0.00000000
Si      -0.00030951      -2.71394658       2.71493993       0.00000000
Si      -2.71508688      -2.71383255      -0.00556897       0.00000000
Si       2.71492954       0.00081450       2.71476804       0.00000000
