10
Lattice="16.28999089631971 0.0 0.0 0.0 16.28999089631971 0.0 0.0 0.0 34.376317263855086" Properties=species:S:1:pos:R:3:initial_magmoms:R:1 pbc="T T T"
Si       1.35666378      -1.35708732       1.35700588       0.00000000
Si       1.35721764       1.35651717      -1.35789967       0.00000000
Si      -1.35773892       1.35830907       1.35683400       0.00000000
Si      -1.35801585      -1.35793440      -1.35834656       0.00000000
Si      -0.00070047       2.71355562       2.71332424       0.00000000
Si       2.71353933      -0.00016290       2.71428678       0.00000000
Si       2.71459818      -2.71437012      -0.00013751       0.00000000
Si      -2.71490769      -2.71479366      -0.00072190       0.00000000
Si      -0.00107514      -2.71536381       2.71452741       0.00000000
Si       2.71490769      -0.00042354      -2.71507743       0.00000000
