10
Lattice="16.28999089631971 0.0 0.0 0.0 16.28999089631971 0.0 0.0 0.0 34.376317263855086" Properties=species:S:1:pos:R:3:initial_magmoms:R:1 pbc="T T T"
Si      -1.36725228      -1.85331330       0.60014208       0.00000000
Si       1.13311611      -0.51026796       2.03140085       0.00000000
Si      -0.58906269       2.26326744      -0.57394731       0.00000000
Si       0.93763611      -0.76957218      -2.08698739       0.00000000
Si       2.77206930      -1.67534505       0.86769311       0.00000000
Si      -2.96155458      -0.12417867      -1.89884570       0.00000000
Si      -2.16640710      -2.34411471      -1.51737149       0.00000000
Si      -1.68588468       1.78597044      -2.59448524       0.00000000
Si       3.14102151      -1.22771214      -1.40654218       0.00000000
Si       1.16791155       1.46380311       3.24962946       0.00000000
