10
Lattice="16.28999089631971 0.0 0.0 0.0 16.28999089631971 0.0 0.0 0.0 34.376317263855086" Properties=species:S:1:pos:R:3:initial_magmoms:R:1 pbc="T T T"
Si       0.22900482       1.60171425       1.71163217       0.00000000
Si      -2.31086356      -0.49348926      -0.13960230       0.00000000
Si       1.19681001      -1.80652842       0.97879743       0.00000000
Si       0.91737135       0.25497108      -2.20156372       0.00000000
Si       1.14673455      -3.39315161      -0.72943148       0.00000000
Si       0.73697589       0.13673826       3.61996574       0.00000000
Si       1.85064174      -1.98470844      -2.52992648       0.00000000
Si       0.11569158      -2.11535424       3.08170106       0.00000000
Si      -3.42025559       1.59830964      -0.27459818       0.00000000
Si      -2.46455157      -2.02487958      -2.11246025       0.00000000
