10
Lattice="16.28999089631971 0.0 0.0 0.0 16.28999089631971 0.0 0.0 0.0 34.376317263855086" Properties=species:S:1:pos:R:3:initial_magmoms:R:1 pbc="T T T"
Si      -0.03479544      -1.97407107      -1.21822861       0.00000000
Si       1.39272984       1.60710624      -0.99048538       0.00000000
Si       1.42811172      -0.86762169       1.76295604       0.00000000
Si      -2.34795915       0.73376676      -0.04998319       0.00000000
Si       3.52885287       0.01299942       1.06535704       0.00000000
Si       0.29533770      -0.23421762       3.71941648       0.00000000
Si      -1.16791155      -1.46380311      -3.24962946       0.00000000
Si      -0.85357971      -3.73739841       0.34696036       0.00000000
Si       3.07771435       2.28740922       0.58690719       0.00000000
Si      -3.72394287      -1.18574910       0.33884755       0.00000000
