10
Lattice="16.28999089631971 0.0 0.0 0.0 16.28999089631971 0.0 0.0 0.0 34.376317263855086" Properties=species:S:1:pos:R:3:initial_magmoms:R:1 pbc="T T T"
Si      -1.27286802      -1.38175038       1.40221218       0.00000000
Si      -0.89899623      -0.74274255      -2.09193758       0.00000000
Si       1.44116001       1.46137590       1.25466551       0.00000000
Si       1.28365200       2.20801176      -2.61892682       0.00000000
Si      -2.62342305       0.05230719       2.79348096       0.00000000
Si       0.11010411      -2.65033413       2.81480116       0.00000000
Si       0.72306423      -2.01927582      -3.28864661       0.00000000
Si       0.09673002       2.77073352       2.79182402       0.00000000
Si       2.80318320       0.06467130       2.78593879       0.00000000
Si      -2.00358855      -3.46405221       0.28240474       0.00000000
