10
Lattice="16.28999089631971 0.0 0.0 0.0 16.28999089631971 0.0 0.0 0.0 34.376317263855086" Properties=species:S:1:pos:R:3:initial_magmoms:R:1 pbc="T T T"
Si      -0.09186583      -1.44176274      -1.85295329       0.00000000
Si      -1.00183241      -1.52617752       1.48162010       0.00000000
Si      -2.07361667       1.14326478      -0.39127146       0.00000000
Si       1.88328038       1.55147589      -0.06070861       0.00000000
Si       0.78213014       3.32180793       0.97996622       0.00000000
Si      -1.19392409       3.34194237      -0.22578378       0.00000000
Si      -0.88105835      -0.15242553      -3.65389518       0.00000000
Si      -2.84349836       0.39829050      -2.50448799       0.00000000
Si      -1.51693850      -3.27313341      -1.29660666       0.00000000
Si       2.38827038       1.96063182      -2.34560057       0.00000000
