10
Lattice="16.28999089631971 0.0 0.0 0.0 16.28999089631971 0.0 0.0 0.0 34.376317263855086" Properties=species:S:1:pos:R:3:initial_magmoms:R:1 pbc="T T T"
Si       2.07736011      -0.90301986      -0.68474225       0.00000000
Si      -1.86336423       0.27381861      -1.47567300       0.00000000
Si       0.93134817       2.11346364       0.71447778       0.00000000
Si       1.78929753       0.59944270       2.52934209       0.00000000
Si      -0.43368867       0.32128767      -3.36008063       0.00000000
Si       0.97953399      -2.81805597      -1.71998562       0.00000000
Si      -1.02452697       3.37334039       0.66119446       0.00000000
Si      -1.28365200      -2.20801176       2.61892682       0.00000000
Si       1.81002330       1.20742362      -2.95423360       0.00000000
Si      -2.18264823      -2.95075431       0.52698924       0.00000000
