10
Lattice="16.28999089631971 0.0 0.0 0.0 16.28999089631971 0.0 0.0 0.0 34.376317263855086" Properties=species:S:1:pos:R:3:initial_magmoms:R:1 pbc="T T T"
Si       1.35629952       1.35769005       1.35683400       0.00000000
Si       1.35737629      -1.35725185      -1.35728089       0.00000000
Si      -1.35755162       1.35759231      -1.35762466       0.00000000
Si      -1.35812177      -1.35963019       1.35769341       0.00000000
Si       2.71244691      -0.00231318       2.71428678       0.00000000
Si       0.00390142       2.71487511       2.71256796       0.00000000
Si       0.00308692      -2.71338663       2.71531807       0.00000000
Si      -2.71462265       0.00021177      -2.71418365       0.00000000
Si      -0.00038231      -2.71453345      -2.71463054       0.00000000
Si       2.71472751       2.71480995       0.00044689       0.00000000
