10
Lattice="16.28999089631971 0.0 0.0 0.0 16.28999089631971 0.0 0.0 0.0 34.376317263855086" Properties=species:S:1:pos:R:3:initial_magmoms:R:1 pbc="T T T"
Si       1.35370631       1.35638685       1.35762466       0.00000000
Si       1.35691869      -1.35705474      -1.35734965       0.00000000
Si      -1.35816071       1.35808101      -1.35710901       0.00000000
Si      -1.35814442      -1.35848826       1.35748715       0.00000000
Si       0.00353668      -2.71464705       2.71267109       0.00000000
Si      -0.00143961      -2.71407690      -2.71418365       0.00000000
Si       2.71436277      -2.71471221       0.00055002       0.00000000
Si      -2.71409144      -0.00034209      -2.71514618       0.00000000
Si       2.71423245       2.71529865       0.00017188       0.00000000
Si      -0.00154580       2.71547784      -2.71438990       0.00000000
