10
Lattice="16.28999089631971 0.0 0.0 0.0 16.28999089631971 0.0 0.0 0.0 34.376317263855086" Properties=species:S:1:pos:R:3:initial_magmoms:R:1 pbc="T T T"
Si      -1.08971696       1.86385293       0.99344175       0.00000000
Si      -1.14580343      -2.07814788      -0.16043436       0.00000000
Si       2.12352530       0.03490947       1.14786025       0.00000000
Si      -0.57005715       1.17349902      -2.19695729       0.00000000
Si       0.50786518       3.37444092       0.16906282       0.00000000
Si       2.60386853       2.36341836       0.66349767       0.00000000
Si      -3.10824344      -1.52743185       0.98897282       0.00000000
Si       0.58819280      -0.38779974      -3.66537688       0.00000000
Si      -0.35661091      -3.36748509       1.64050753       0.00000000
Si       1.61853530      -0.37424646       3.43275221       0.00000000
