10
Lattice="16.28999089631971 0.0 0.0 0.0 16.28999089631971 0.0 0.0 0.0 34.376317263855086" Properties=species:S:1:pos:R:3:initial_magmoms:R:1 pbc="T T T"
Si      -0.77529974      -1.83720249       1.37559458       0.00000000
Si       1.81304442       0.80547534       1.44458101       0.00000000
Si       1.01579553      -0.14196735      -2.24040898       0.00000000
Si      -1.79202706       1.71743841      -0.06651821       0.00000000
Si      -2.16755459      -0.56104389       2.81512430       0.00000000
Si       0.53921529       2.19120048       2.80788120       0.00000000
Si       3.17687580       0.75849498      -1.66501786       0.00000000
Si       2.87210619       2.30739705       0.02148521       0.00000000
Si      -3.47832944       0.81225198       1.44755113       0.00000000
Si      -0.81075493       3.60698067       1.28822369       0.00000000
