10
Lattice="16.28999089631971 0.0 0.0 0.0 16.28999089631971 0.0 0.0 0.0 34.376317263855086" Properties=species:S:1:pos:R:3:initial_magmoms:R:1 pbc="T T T"
Si       2.16108027       0.90046233       0.57539112       0.00000000
Si       0.32379633      -2.30265666      -0.65493796       0.00000000
Si      -1.01579553       0.14196735       2.24040898       0.00000000
Si      -1.56141116       0.67201137      -2.14473963       0.00000000
Si       2.45496816       2.32588620      -1.32843915       0.00000000
Si      -1.56138673      -3.42539604       0.18466968       0.00000000
Si       1.85631066       2.44936440       2.26189419       0.00000000
Si       0.51008877       3.74222025       0.73695990       0.00000000
Si       0.79724889       0.94744269       3.68498999       0.00000000
Si      -0.65616120      -0.67872285      -3.87431625       0.00000000
