10
Lattice="16.28999089631971 0.0 0.0 0.0 16.28999089631971 0.0 0.0 0.0 34.376317263855086" Properties=species:S:1:pos:R:3:initial_magmoms:R:1 pbc="T T T"
Si       1.46368908      -1.18024308      -1.48241076       0.00000000
Si       1.02397311       1.79944457       1.23400735       0.00000000
Si      -1.24598626       1.51086070      -1.47708243       0.00000000
Si      -1.54957811      -1.55359359       1.41008295       0.00000000
Si       2.64709242      -2.55482586       0.00587835       0.00000000
Si       2.40849279       0.49005600       2.84457309       0.00000000
Si       0.11381823      -2.53671138      -2.85010768       0.00000000
Si      -2.68852508       2.73493529      -0.06129301       0.00000000
Si      -2.59689383       0.17807927      -2.85375157       0.00000000
Si      -0.92527200       3.52742750       1.31379483       0.00000000
