10
Lattice="16.28999089631971 0.0 0.0 0.0 16.28999089631971 0.0 0.0 0.0 34.376317263855086" Properties=species:S:1:pos:R:3:initial_magmoms:R:1 pbc="T T T"
Si      -1.63002301      -0.74909565       1.62111928       0.00000000
Si      -1.89735983       1.36134783      -0.64837208       0.00000000
Si       0.47325708      -2.35636479      -0.47972178       0.00000000
Si       1.87273098       1.46370604      -0.67532313       0.00000000
Si       0.00234576      -0.08395866       3.48562301       0.00000000
Si      -1.09396147       2.20272144      -2.70108626       0.00000000
Si       2.18559672      -2.71132389       1.15129788       0.00000000
Si       2.60216460       0.56387835       2.65705018       0.00000000
Si       1.15771401      -2.38216815      -2.69950495       0.00000000
Si      -1.77679754       3.23202464       0.89591608       0.00000000
