10
Lattice="16.28999089631971 0.0 0.0 0.0 16.28999089631971 0.0 0.0 0.0 34.376317263855086" Properties=species:S:1:pos:R:3:initial_magmoms:R:1 pbc="T T T"
Si       0.68445693      -0.02580336      -2.21978318       0.00000000
Si       1.71233964      -0.35495910       1.63101966       0.00000000
Si      -1.63227592      -1.80214641       0.05758036       0.00000000
Si      -0.47325708       2.35636479       0.47972178       0.00000000
Si      -2.10328009       1.60726914       2.10084105       0.00000000
Si      -3.20110622      -0.30776697       1.06559768       0.00000000
Si      -1.12823726       0.74106468      -3.54045327       0.00000000
Si       2.62430271       1.26527688      -2.59324769       0.00000000
Si       1.10498328      -2.25572517      -2.99077565       0.00000000
Si       3.30175494       1.38689802       1.55900124       0.00000000
