10
Lattice="16.290000149 0.0 0.0 0.0 16.290000149 0.0 0.0 0.0 29.1751946751" Properties=species:S:1:pos:R:3:initial_magmoms:R:1 pbc="T T T"
Si      -1.33504696      -1.36396171       1.36925024       0.00000000
Si       1.35001747      -1.35017223      -1.37283879       0.00000000
Si       1.36024759       1.34591239       1.36758725       0.00000000
Si      -1.36919080       1.34456032      -1.36370695       0.00000000
Si      -2.69697242      -2.70651836      -0.00802318       0.00000000
Si       2.71353935       2.69345378      -0.00662277       0.00000000
Si      -0.00941562       2.73323396       2.67860380       0.00000000
Si       2.72484461      -2.69643485      -0.03643982       0.00000000
Si      -2.76022650      -0.00166158       2.66763393       0.00000000
Si      -0.01940139       2.70954830      -2.72026598       0.00000000
