10
Lattice="16.290000149 0.0 0.0 0.0 16.290000149 0.0 0.0 0.0 29.1751946751" Properties=species:S:1:pos:R:3:initial_magmoms:R:1 pbc="T T T"
Si      -1.34348518      -1.37828062       1.31370067       0.00000000
Si       1.30401451      -1.34640109      -1.43151010       0.00000000
Si       1.22961808       1.43347929       1.42625857       0.00000000
Si      -1.40095630       1.34122087      -1.35970995       0.00000000
Si       0.20222406      -2.70242957       2.49865120       0.00000000
Si       2.64246608       2.71790507       0.04551330       0.00000000
Si      -2.70829397      -0.00837306       2.65748096       0.00000000
Si      -0.29186793       2.74991493       2.62322928       0.00000000
Si       2.65893527       0.00874773      -2.76540000       0.00000000
Si      -0.06590934       2.70518258      -2.72896018       0.00000000
