10
Lattice="16.290000149 0.0 0.0 0.0 16.290000149 0.0 0.0 0.0 29.1751946751" Properties=species:S:1:pos:R:3:initial_magmoms:R:1 pbc="T T T"
H        0.45155880       1.28428732      -0.66256867       0.00000000
Si      -0.81352261       0.98831431       1.94198848       0.00000000
Si      -1.87778090      -0.70535701      -1.27691075       0.00000000
Si       2.01047924      -1.36941886      -0.08017343       0.00000000
H        0.97132384      -0.25583445      -2.47994990       0.00000000
H       -0.66072241      -2.66662415      -1.05383721       0.00000000
Si       3.16486032       0.69260194      -0.67234236       0.00000000
Si      -2.31563981       2.29912175       0.64646396       0.00000000
Si       0.78279967      -2.95705857      -1.49196111       0.00000000
Si       2.00288810       0.85265119      -2.69257872       0.00000000
