10
Lattice="16.290000149 0.0 0.0 0.0 16.290000149 0.0 0.0 0.0 29.1751946751" Properties=species:S:1:pos:R:3:initial_magmoms:R:1 pbc="T T T"
Si       1.61293807      -0.17086581      -1.67897410       0.00000000
Si      -0.43158726       2.28924349      -0.30406388       0.00000000
Si       0.24553917      -0.51334677       2.29944355       0.00000000
Si      -1.89641666      -1.30095199      -0.63263492       0.00000000
H        1.32460507      -2.22495338       1.50975797       0.00000000
H       -2.78080077      -0.45413262      -1.52536670       0.00000000
Si      -1.49934790       1.02899044       2.75273797       0.00000000
Si       0.05115060      -0.95076586      -3.27228983       0.00000000
Si      -2.32528349       2.27160468       1.03545683       0.00000000
Si      -0.86369581      -2.78725161      -2.10353154       0.00000000
