10
Lattice="16.290000149 0.0 0.0 0.0 16.290000149 0.0 0.0 0.0 29.1751946751" Properties=species:S:1:pos:R:3:initial_magmoms:R:1 pbc="T T T"
Si      -0.68665609       2.05105926       0.76333979       0.00000000
Si       2.05578173      -0.61197784       0.89244003       0.00000000
Si      -1.24294330      -1.78544755       0.84412591       0.00000000
Si      -0.64130473      -0.67796211      -2.14510619       0.00000000
Si      -0.68445694      -2.82292508      -1.16423614       0.00000000
H        0.68331664       2.30966301      -2.13539085       0.00000000
Si      -1.30370500       1.53898310       2.94526508       0.00000000
Si      -3.53232363       0.78783491      -0.76824123       0.00000000
Si       1.53367093      -1.86603418       2.82395462       0.00000000
Si       1.07869123       3.53587648       0.43129690       0.00000000
