10
Lattice="16.290000149 0.0 0.0 0.0 16.290000149 0.0 0.0 0.0 29.1751946751" Properties=species:S:1:pos:R:3:initial_magmoms:R:1 pbc="T T T"
Si       1.32903595       1.38554596      -1.37034431       0.00000000
Si       1.35024553      -1.35946567       1.37818952       0.00000000
Si      -1.36070371       1.34884459       1.39302219       0.00000000
Si      -1.38618127      -1.37380087      -1.34455343       0.00000000
Si       2.53830782      -0.08304642      -2.79572762       0.00000000
Si      -2.63445140      -2.73083933       0.10832750       0.00000000
Si      -2.83095768       0.05608647      -2.55144371       0.00000000
Si       2.72194499       0.04582377       2.69177640       0.00000000
Si      -0.06467130       2.81779536      -2.59272661       0.00000000
Si       2.63827955       2.83112058      -0.00119910       0.00000000
