10
Lattice="16.290000149 0.0 0.0 0.0 16.290000149 0.0 0.0 0.0 29.1751946751" Properties=species:S:1:pos:R:3:initial_magmoms:R:1 pbc="T T T"
Si       1.08250309      -1.42047172      -1.49779614       0.00000000
Si      -1.54570924       1.32414895      -1.18495053       0.00000000
Si      -1.05565717      -1.76262689       1.18130363       0.00000000
Si       2.12749031       0.96997177       0.67916936       0.00000000
Si       0.22014306       0.80656678       3.38551877       0.00000000
Si       2.37785132      -2.71402805      -0.07107077       0.00000000
Si      -0.20222406       2.70242957      -2.49865120       0.00000000
Si      -1.40188483      -0.88014871       3.31584840       0.00000000
Si       2.49730589      -0.09410733      -2.73669161       0.00000000
Si       0.54591048      -3.53914914       1.09188166       0.00000000
