10
Lattice="16.290000149 0.0 0.0 0.0 16.290000149 0.0 0.0 0.0 29.1751946751" Properties=species:S:1:pos:R:3:initial_magmoms:R:1 pbc="T T T"
Si       1.34706898       1.35755974       1.36108118       0.00000000
Si      -1.35405739       1.37060803      -1.35107409       0.00000000
Si      -1.36070371      -1.34415307       1.37193435       0.00000000
Si       1.37756386      -1.34881201      -1.35133667       0.00000000
Si      -0.05137866      -2.77004937      -2.57621053       0.00000000
Si       2.67789683      -2.69636969       0.06791985       0.00000000
Si      -0.02285487       2.72104904       2.69745097       0.00000000
Si       2.69299766      -0.00143352       2.73018554       0.00000000
Si      -2.68732874       0.03349224      -2.73564422       0.00000000
Si       2.69731451       2.73328284       0.01321636       0.00000000
