10
Lattice="16.290000149 0.0 0.0 0.0 16.290000149 0.0 0.0 0.0 29.1751946751" Properties=species:S:1:pos:R:3:initial_magmoms:R:1 pbc="T T T"
Si      -1.34571691       1.35197227       1.34209426       0.00000000
Si       1.39370725      -1.43224939       1.22238231       0.00000000
Si       1.39471723       1.22437270      -1.43177268       0.00000000
Si      -1.50399055      -1.27972612      -1.28837660       0.00000000
H        0.51033312       2.07119207      -2.32450446       0.00000000
Si       2.70295085       0.01332522       2.59152751       0.00000000
Si      -2.55893096       2.76477141      -0.11086574       0.00000000
Si      -2.66564675      -0.05222574       2.68488522       0.00000000
Si       2.42743808      -0.26192691      -2.90266929       0.00000000
Si       0.06467130      -2.81779536       2.59272661       0.00000000
