10
Lattice="16.290000149 0.0 0.0 0.0 16.290000149 0.0 0.0 0.0 29.1751946751" Properties=species:S:1:pos:R:3:initial_magmoms:R:1 pbc="T T T"
Si      -1.43291728       1.31874067      -1.28394197       0.00000000
Si      -1.38023542      -1.31761666       1.36356107       0.00000000
Si       1.33507954       1.40484961       1.33882051       0.00000000
Si       1.34513047      -1.27884646      -1.46199818       0.00000000
Si      -0.07625349       2.65978235      -2.59775933       0.00000000
Si       2.68506443      -2.61480566      -0.03973662       0.00000000
Si      -0.02394630      -2.68727987       2.70258581       0.00000000
Si      -2.75387340      -2.64319913       0.00008753       0.00000000
Si       2.69816159       0.06568128       2.70325684       0.00000000
Si      -2.74844883       0.06107121       2.68709378       0.00000000
