10
Lattice="16.290000149 0.0 0.0 0.0 16.290000149 0.0 0.0 0.0 29.1751946751" Properties=species:S:1:pos:R:3:initial_magmoms:R:1 pbc="T T T"
Si      -1.48768426       1.79949116      -0.11696336       0.00000000
Si       1.12699108      -1.11622339      -1.75173704       0.00000000
Si      -1.66218275      -1.52345710       0.73223904       0.00000000
Si       1.86310361       0.83973322       1.25316214       0.00000000
H       -0.75478087       0.55511434       2.50142284       0.00000000
H       -1.40496364       0.97702534       2.44680688       0.00000000
Si       2.47086722      -2.53009766      -0.38155320       0.00000000
H        1.36932112       3.21318624      -0.96464864       0.00000000
H        0.79659730       3.33542640       1.36671199       0.00000000
Si       2.55529829       2.70159878      -0.16556923       0.00000000
