10
Lattice="16.290000149 0.0 0.0 0.0 16.290000149 0.0 0.0 0.0 29.1751946751" Properties=species:S:1:pos:R:3:initial_magmoms:R:1 pbc="T T T"
Si      -1.46474469      -1.38246715       1.21608046       0.00000000
Si       1.33869592      -1.33053463      -1.40857840       0.00000000
Si      -1.34709342       1.35285193      -1.38617185       0.00000000
Si       1.41213124       1.39514077       1.29847121       0.00000000
Si      -0.11362275       2.65989638       2.51472673       0.00000000
Si      -0.04779486      -2.60626970       2.59405408       0.00000000
Si       2.75910249       2.68511330      -0.07235448       0.00000000
Si      -2.80565931      -0.07949520       2.63851708       0.00000000
Si      -0.01052334       2.70365132      -2.75618064       0.00000000
Si       2.75861379      -2.70316262      -0.15567884       0.00000000
