10
Lattice="16.290000149 0.0 0.0 0.0 16.290000149 0.0 0.0 0.0 29.1751946751" Properties=species:S:1:pos:R:3:initial_magmoms:R:1 pbc="T T T"
Si       1.04956471      -1.11025473      -0.01852625       0.00000000
Si      -1.86022028       1.84606590      -0.72371988       0.00000000
Si      -0.33231600       2.57030301       0.89121467       0.00000000
H        1.23543361       2.16938982      -1.72507091       0.00000000
Si      -0.25777296       1.10860130       2.82202906       0.00000000
Si      -1.82949734      -0.57968454       2.37649466       0.00000000
Si       2.92093060      -0.20090620       1.09547021       0.00000000
Si      -1.24204735       0.77468888      -2.77123504       0.00000000
Si       1.32585940      -1.84875049      -2.22551303       0.00000000
Si       0.21502800      -3.03979385       1.00158443       0.00000000
