10
Lattice="16.290000149 0.0 0.0 0.0 16.290000149 0.0 0.0 0.0 29.1751946751" Properties=species:S:1:pos:R:3:initial_magmoms:R:1 pbc="T T T"
Si       0.61704892       0.51207615      -2.18192528       0.00000000
Si      -2.29825838      -0.07183890       0.44789759       0.00000000
Si       0.78428206       2.03787902       0.87578099       0.00000000
Si       1.22217355      -1.87226836       0.95382464       0.00000000
Si       1.70381999       0.99660592       2.71740681       0.00000000
Si       3.03485961      -0.54995040       1.56069786       0.00000000
Si       1.30370500      -1.53898310      -2.94526508       0.00000000
Si      -0.21732489      -0.04253319       3.64036409       0.00000000
Si      -2.41380335       0.30258675       2.82885605       0.00000000
Si      -3.15514497       1.98190658      -0.40057542       0.00000000
