10
Lattice="16.290000149 0.0 0.0 0.0 16.290000149 0.0 0.0 0.0 29.1751946751" Properties=species:S:1:pos:R:3:initial_magmoms:R:1 pbc="T T T"
Si       1.36769212       1.35778780       1.32913434       0.00000000
Si       1.37109673      -1.35685927      -1.33254784       0.00000000
Si      -1.34340373       1.38295585      -1.34363442       0.00000000
Si      -1.37503891      -1.33656193       1.36175221       0.00000000
Si      -0.07011216       2.69236235       2.61036302       0.00000000
Si      -0.00252495      -2.70446582      -2.67521948       0.00000000
Si      -2.69203655       0.02124216      -2.69377490       0.00000000
Si      -0.01993896      -2.70308117       2.69879303       0.00000000
Si       2.72088614       0.00812871      -2.68910687       0.00000000
Si       2.72124452       2.70922250      -0.03276374       0.00000000
