10
Lattice="16.290000149 0.0 0.0 0.0 16.290000149 0.0 0.0 0.0 29.1751946751" Properties=species:S:1:pos:R:3:initial_magmoms:R:1 pbc="T T T"
Si       1.39018861       1.34460919       1.27562704       0.00000000
Si       1.25863057      -1.40030470      -1.36454720       0.00000000
Si      -1.31487994       1.26281710      -1.47341443       0.00000000
Si      -1.40970403      -1.40436091       1.25838450       0.00000000
Si      -2.16938819      -0.67362409      -2.51481134       0.00000000
Si      -0.46472112      -2.34093818      -2.64148332       0.00000000
Si      -0.03595203       2.70488936       2.54445625       0.00000000
Si       2.71505416      -0.06380793       2.59230357       0.00000000
Si       2.58009167      -0.07521093      -2.73034542       0.00000000
Si       2.68708439       2.65768094      -0.19371746       0.00000000
