10
Lattice="16.290000149 0.0 0.0 0.0 16.290000149 0.0 0.0 0.0 29.1751946751" Properties=species:S:1:pos:R:3:initial_magmoms:R:1 pbc="T T T"
Si       1.41231043       1.38966733      -1.25647060       0.00000000
Si       1.36669843      -1.34659657       1.37278043       0.00000000
Si      -1.28046813       1.34623819       1.45627984       0.00000000
Si      -1.39116601      -1.28519956      -1.43512199       0.00000000
Si      -2.69338862      -2.64028322      -0.00131288       0.00000000
Si      -2.59732649       2.78130250       0.17989425       0.00000000
Si       0.13442345       2.76442606      -2.64503482       0.00000000
Si       2.74281249       0.07503174      -2.67553457       0.00000000
Si       2.71013474       2.70575762       0.18237414       0.00000000
Si       2.71912682      -2.71410950       0.01467512       0.00000000
