10
Lattice="16.290000149 0.0 0.0 0.0 16.290000149 0.0 0.0 0.0 29.1751946751" Properties=species:S:1:pos:R:3:initial_magmoms:R:1 pbc="T T T"
Si      -1.14552910      -0.12598686       2.05976874       0.00000000
Si      -1.52625898       0.99561223      -1.50640283       0.00000000
Si       0.99759961      -1.76625956      -1.26553242       0.00000000
Si       1.52708977       1.84495655       0.42598702       0.00000000
H       -2.05918634      -2.80515432      -0.90886566       0.00000000
H        0.70682311      -2.97730704       1.91949441       0.00000000
Si       2.29773710      -0.46929861      -2.76286176       0.00000000
Si      -2.55660149       2.61876739      -0.19036815       0.00000000
Si      -0.23602581       2.43570314      -2.78561841       0.00000000
Si       0.41625837       0.65391319       3.65308448       0.00000000
