10
Lattice="16.290000149 0.0 0.0 0.0 16.290000149 0.0 0.0 0.0 29.1751946751" Properties=species:S:1:pos:R:3:initial_magmoms:R:1 pbc="T T T"
Si       1.27120890      -1.36164853      -1.42237827       0.00000000
Si       1.35780165       1.41092578       1.31337974       0.00000000
Si      -1.39192920       1.35518140      -1.35022801       0.00000000
Si      -1.29484080      -1.35856972       1.44504739       0.00000000
Si       2.61936931      -2.69671178      -0.04621351       0.00000000
Si      -0.07600670       2.65559582       2.68330100       0.00000000
Si      -2.72194255      -2.63002052       0.04055352       0.00000000
Si       2.61251122       0.00708615      -2.78561841       0.00000000
Si      -0.03678038       2.70241328      -2.74378118       0.00000000
Si      -0.10826090      -2.72315046      -2.75612229       0.00000000
