10
Lattice="16.290000149 0.0 0.0 0.0 16.290000149 0.0 0.0 0.0 29.1751946751" Properties=species:S:1:pos:R:3:initial_magmoms:R:1 pbc="T T T"
Si       1.41521005      -1.34389325       1.25482221       0.00000000
Si      -1.49581297       1.23464192       1.28220021       0.00000000
Si      -1.03899250      -1.85480548      -0.95051325       0.00000000
Si       0.86700268       1.72712120      -1.38328846       0.00000000
H       -2.04607289       0.77635534      -2.06103786       0.00000000
Si      -1.86492809      -0.61219124      -2.66779439       0.00000000
Si      -0.07798023       2.66369847       2.51657935       0.00000000
Si       2.64754856      -2.54432861      -0.34165612       0.00000000
Si      -0.83766439       3.39443530      -1.25661648       0.00000000
Si      -0.04502556      -2.78116892       2.46966564       0.00000000
