10
Lattice="16.290000149 0.0 0.0 0.0 16.290000149 0.0 0.0 0.0 29.1751946751" Properties=species:S:1:pos:R:3:initial_magmoms:R:1 pbc="T T T"
Si      -1.32713002       1.35731539       1.36714962       0.00000000
Si       1.37556019      -1.34047153       1.35898057       0.00000000
Si       1.40970403       1.40436091      -1.25838450       0.00000000
Si      -1.41783274      -1.42905655      -1.23437915       0.00000000
Si       0.07798023      -2.66369847      -2.51657935       0.00000000
Si       2.66833460       0.00405621      -2.62293169       0.00000000
Si      -2.66362679      -0.05647743      -2.64404870       0.00000000
Si       0.04999401       2.72243369       2.67008464       0.00000000
Si      -2.63979452       2.75287971       0.02879592       0.00000000
Si       0.09482409       2.66717801      -2.73179893       0.00000000
