10
Lattice="16.290000149 0.0 0.0 0.0 16.290000149 0.0 0.0 0.0 29.1751946751" Properties=species:S:1:pos:R:3:initial_magmoms:R:1 pbc="T T T"
Si       1.30013749       1.29696094      -1.49732934       0.00000000
Si       1.26055279      -1.64268361       1.15501678       0.00000000
Si      -0.99759961       1.76625956       1.26553242       0.00000000
Si      -1.29808495      -1.67272238      -1.17561447       0.00000000
H        0.22898853      -2.75116926       1.36764560       0.00000000
H       -3.05678595      -1.03889476       0.35666675       0.00000000
H       -2.48406212      -1.16113492      -1.97469388       0.00000000
H       -0.29077650      -1.21104748       3.18502683       0.00000000
H       -1.85373686       0.49875093      -3.07932510       0.00000000
Si      -2.52385859       2.76187179      -0.24087041       0.00000000
