10
Lattice="16.290000149 0.0 0.0 0.0 16.290000149 0.0 0.0 0.0 29.1751946751" Properties=species:S:1:pos:R:3:initial_magmoms:R:1 pbc="T T T"
Si      -1.88750603      -1.34052040      -0.38773834       0.00000000
Si       0.52211079       1.25405634      -1.93151459       0.00000000
Si       1.93318319      -1.49069791       0.31862230       0.00000000
H       -0.89876818      -0.99406468       2.06554543       0.00000000
Si      -1.61520238       1.53274892       1.07513510       0.00000000
H       -2.79599934      -1.41349960       0.82840048       0.00000000
Si       0.19748367       2.85506688       1.68200832       0.00000000
Si      -2.77661424       0.08058663      -1.97982871       0.00000000
Si      -0.01438407      -1.84088405       2.95827721       0.00000000
Si       1.55245330      -0.36909882      -3.24754927       0.00000000
