10
Lattice="16.290000149 0.0 0.0 0.0 16.290000149 0.0 0.0 0.0 29.1751946751" Properties=species:S:1:pos:R:3:initial_magmoms:R:1 pbc="T T T"
Si       1.21707804      -1.28626004      -1.60443148       0.00000000
Si      -1.28841358       1.34770429      -1.50120964       0.00000000
Si      -1.43806981      -1.42255196       1.34704791       0.00000000
Si       1.31913163       1.69894928       1.14390103       0.00000000
H        2.84066163       0.23426649       0.51797641       0.00000000
H        0.17834455       2.66090636       1.43337731       0.00000000
H       -0.95619532       0.85677256       3.36681747       0.00000000
Si      -2.62888511      -2.57062116      -0.34523008       0.00000000
Si       3.44638899      -1.07617605       0.95073207       0.00000000
Si       2.59691436      -2.73623132      -0.44626378       0.00000000
