10
Lattice="16.290000149 0.0 0.0 0.0 16.290000149 0.0 0.0 0.0 29.1751946751" Properties=species:S:1:pos:R:3:initial_magmoms:R:1 pbc="T T T"
Si      -1.35751413       1.39373983      -1.32787981       0.00000000
Si       1.17187003       1.46046367       1.44596641       0.00000000
Si      -1.48715973      -1.21731913       1.41891517       0.00000000
Si       1.03933459      -1.25281504      -1.80754919       0.00000000
Si      -1.03107556      -2.24981192      -2.54821985       0.00000000
Si      -2.46401565      -0.31643325      -2.57071393       0.00000000
Si       2.42747066       0.47829069      -2.76516660       0.00000000
Si       2.54078390       0.10681353       2.80922990       0.00000000
Si      -0.14445972      -2.55290366       2.81980882       0.00000000
Si       2.47137221       2.93878119       0.16543911       0.00000000
