10
Lattice="16.290000149 0.0 0.0 0.0 16.290000149 0.0 0.0 0.0 29.1751946751" Properties=species:S:1:pos:R:3:initial_magmoms:R:1 pbc="T T T"
Si       1.18597717      -0.51158745       0.79907941       0.00000000
H       -0.80793514       0.74846035      -1.65335828       0.00000000
H        0.63032527       1.65988586      -1.10463122       0.00000000
H       -0.57272383       0.12224016       2.33136063       0.00000000
Si      -1.88419916       0.58267702       1.72393308       0.00000000
Si      -1.65266939      -0.18538020      -2.46340756       0.00000000
Si       2.51804306      -1.58117257      -0.82262379       0.00000000
Si      -1.61546302       2.61276941       0.52783762       0.00000000
Si       0.49378248      -2.37345302       2.21781077       0.00000000
Si      -2.85700539      -1.41369508       0.84768528       0.00000000
