10
Lattice="16.290000149 0.0 0.0 0.0 16.290000149 0.0 0.0 0.0 29.1751946751" Properties=species:S:1:pos:R:3:initial_magmoms:R:1 pbc="T T T"
Si       1.44352207      -0.29043441      -0.43812390       0.00000000
Si      -1.97967485       0.08944839       1.05523762       0.00000000
Si      -1.21705849       1.96126715      -0.22307354       0.00000000
Si       0.66072241       2.66662415       1.05383721       0.00000000
Si       1.09061551      -0.05245380      -2.79971003       0.00000000
Si      -0.58722193       1.62737101      -2.55064139       0.00000000
Si      -0.95746105      -1.24621759       2.67583215       0.00000000
Si       1.89925112      -2.42163884       0.45866324       0.00000000
Si       2.67120164       1.29720529       0.97366377       0.00000000
H        1.63204624       2.41078970      -1.42611269       0.00000000
