10
Lattice="16.290000149 0.0 0.0 0.0 16.290000149 0.0 0.0 0.0 29.1751946751" Properties=species:S:1:pos:R:3:initial_magmoms:R:1 pbc="T T T"
Si      -1.35063649      -1.34325712      -1.31162923       0.00000000
Si       1.39470094      -1.28283751       1.36020593       0.00000000
Si       1.38385180       1.33568227      -1.34039597       0.00000000
Si      -1.18311013       1.45112950       1.41228365       0.00000000
Si       2.27380709       0.60619978       2.42865991       0.00000000
Si       0.67223944       2.38272203       2.51808188       0.00000000
Si      -2.66123216       0.08379576      -2.60858333       0.00000000
Si       0.08716779      -2.67783167      -2.59285790       0.00000000
Si       0.01772352      -2.60159447       2.71670660       0.00000000
Si      -2.72271062      -2.59683779       0.12031850       0.00000000
