10
Lattice="16.290000149 0.0 0.0 0.0 16.290000149 0.0 0.0 0.0 29.1751946751" Properties=species:S:1:pos:R:3:initial_magmoms:R:1 pbc="T T T"
Si       2.23091552      -0.50257908       0.33137186       0.00000000
Si      -1.04505238       0.66529012       2.06881305       0.00000000
Si      -0.05846481       2.07070337      -1.28099527       0.00000000
Si      -0.65550961      -1.77109769      -1.58141225       0.00000000
Si      -2.36450981       1.98227147      -0.91960214       0.00000000
H       -0.66440395      -2.90897049       1.54328027       0.00000000
Si       2.78940189      -1.54005661      -1.67699019       0.00000000
Si      -3.11686347       1.39185182       1.23358558       0.00000000
Si       3.47385882       1.28286846      -0.51275405       0.00000000
Si       1.16737399      -3.22677210      -1.74666055       0.00000000
