10
Lattice="16.290000149 0.0 0.0 0.0 16.290000149 0.0 0.0 0.0 29.1751946751" Properties=species:S:1:pos:R:3:initial_magmoms:R:1 pbc="T T T"
Si      -1.30665349      -1.31430002      -1.44638945       0.00000000
Si      -1.32312268       1.39485733       1.36452385       0.00000000
Si       1.26154648      -1.39135172       1.43089742       0.00000000
Si       1.36651924       1.35932884      -1.37677744       0.00000000
Si      -2.66157425      -2.66944884      -0.11249955       0.00000000
Si       2.66217698       0.02510615       2.68858171       0.00000000
Si       2.69071706      -2.67422181       0.01908058       0.00000000
Si      -2.67125051       2.72804723      -0.04236238       0.00000000
Si       0.07747524       2.76538391       2.67810782       0.00000000
Si      -2.68148063       0.03196261      -2.78278842       0.00000000
