10
Lattice="16.290000149 0.0 0.0 0.0 16.290000149 0.0 0.0 0.0 29.1751946751" Properties=species:S:1:pos:R:3:initial_magmoms:R:1 pbc="T T T"
Si       1.42025995       1.30958569       1.31407994       0.00000000
Si       1.37849239      -1.34718301      -1.32166549       0.00000000
Si      -1.34864911      -1.35786925       1.35358316       0.00000000
Si      -1.36221868       1.39401676      -1.30506481       0.00000000
Si       0.05851368       2.67963986       2.57616969       0.00000000
Si       0.00791694      -2.70845687      -2.64948695       0.00000000
Si       2.73002483       0.04450428      -2.64881592       0.00000000
Si      -2.71658558       0.03989421      -2.66497898       0.00000000
Si       0.01236411       2.73704583      -2.64724046       0.00000000
Si       2.73432540      -2.67628412       0.06713212       0.00000000
