10
Lattice="16.290000149 0.0 0.0 0.0 16.290000149 0.0 0.0 0.0 29.1751946751" Properties=species:S:1:pos:R:3:initial_magmoms:R:1 pbc="T T T"
Si       1.35989410       1.35058762      -1.35323305       0.00000000
Si       1.37092243      -1.34239375       1.35647150       0.00000000
Si      -1.33824611       1.36321237       1.37266373       0.00000000
Si      -1.34844875      -1.37780821      -1.35183265       0.00000000
Si      -2.68716096      -0.04784373       2.67758267       0.00000000
Si       2.66943092      -2.70050735      -0.06112203       0.00000000
Si      -0.02972599       2.69897609      -2.68356358       0.00000000
Si      -2.69144523      -0.02062314      -2.72154968       0.00000000
Si       2.67778769      -0.01329264      -2.74293510       0.00000000
Si       2.72763509       0.03945438       2.70684539       0.00000000
