10
Lattice="16.290000149 0.0 0.0 0.0 16.290000149 0.0 0.0 0.0 29.1751946751" Properties=species:S:1:pos:R:3:initial_magmoms:R:1 pbc="T T T"
Si      -1.48837007       1.07737174       1.42389538       0.00000000
Si      -1.42324265      -1.43549110      -1.16893335       0.00000000
Si       1.55745271      -1.07900074       1.37254703       0.00000000
Si       1.30907907       1.49024179      -1.27291374       0.00000000
H       -2.51993433      -0.03111390       1.63652419       0.00000000
Si       1.98346879       0.73873522       2.84881188       0.00000000
Si      -0.32639785       0.91732249       3.44413173       0.00000000
Si       0.01056569      -2.68016114      -2.53885462       0.00000000
Si      -2.71494192      -0.02225214      -2.52843907       0.00000000
Si       2.81393300       0.15656319      -2.52181630       0.00000000
