10
Lattice="16.290000149 0.0 0.0 0.0 16.290000149 0.0 0.0 0.0 29.1751946751" Properties=species:S:1:pos:R:3:initial_magmoms:R:1 pbc="T T T"
Si       0.88438411      -0.84681937       0.89273178       0.00000000
H       -1.89723116      -0.41943492      -1.23714495       0.00000000
Si       0.89876818       0.99406468      -2.06554543       0.00000000
Si      -0.98873785      -0.34645572      -2.45328377       0.00000000
Si      -0.71643421       2.52681360      -0.99041033       0.00000000
Si      -1.44016633       2.16966186       1.27384735       0.00000000
Si       1.91710496      -2.33311898      -0.57816483       0.00000000
Si      -0.51033312      -2.07119207       2.32450446       0.00000000
Si       2.78080077       0.45413262       1.52536670       0.00000000
Si       2.83195137      -0.49663323      -1.74692313       0.00000000
