10
Lattice="16.290000149 0.0 0.0 0.0 16.290000149 0.0 0.0 0.0 29.1751946751" Properties=species:S:1:pos:R:3:initial_magmoms:R:1 pbc="T T T"
Si      -2.05578173       0.61197784      -0.89244003       0.00000000
Si       1.03034251      -1.62315516      -1.31603468       0.00000000
Si      -0.52211079      -1.25405634       1.93151459       0.00000000
Si       1.51578451       1.84962852       0.07063315       0.00000000
Si       2.32057568      -0.18306425      -2.59525027       0.00000000
Si      -3.29872503      -1.17346971      -0.04831412       0.00000000
Si       2.55660149      -2.61876739       0.19036815       0.00000000
Si       0.78050278       3.17568340      -1.71938175       0.00000000
Si      -2.13731318       0.27869258       3.00664969       0.00000000
Si       0.89761159       2.92100554       2.11814831       0.00000000
