10
Lattice="16.290000149 0.0 0.0 0.0 16.290000149 0.0 0.0 0.0 29.1751946751" Properties=species:S:1:pos:R:3:initial_magmoms:R:1 pbc="T T T"
Si       1.43911258      -1.34908894       1.28700536       0.00000000
Si      -1.25762059      -1.36764325      -1.45604644       0.00000000
Si       1.37844352       1.32698341      -1.38920607       0.00000000
Si      -1.42917058       1.28287009       1.41181685       0.00000000
Si       0.09019773      -2.76014505       2.59192430       0.00000000
Si      -2.69071706       2.67422181      -0.01908058       0.00000000
Si      -0.02854008       2.69932796       2.66950114       0.00000000
Si      -2.59502960      -2.81541702      -0.20020019       0.00000000
Si      -2.72574056      -0.30812535       2.68706460       0.00000000
Si       2.74962171       2.69915528      -0.05966327       0.00000000
