10
Lattice="16.290000149 0.0 0.0 0.0 16.290000149 0.0 0.0 0.0 29.1751946751" Properties=species:S:1:pos:R:3:initial_magmoms:R:1 pbc="T T T"
Si       1.36436896       1.35843940      -1.33117661       0.00000000
Si      -1.34995231       1.36322866       1.35670490       0.00000000
Si       1.38388438      -1.33942897       1.34786482       0.00000000
Si      -1.33623613      -1.34814412      -1.39346565       0.00000000
Si       2.69941592      -0.08175951      -2.62317093       0.00000000
Si      -0.02182860       2.71417466      -2.66748805       0.00000000
Si      -2.69057045      -2.69390990      -0.01864295       0.00000000
Si       0.02347389      -2.70101234       2.69231614       0.00000000
Si      -2.71909424       0.02008557       2.69853046       0.00000000
Si       0.01674612       2.72710892       2.70658281       0.00000000
