10
Lattice="16.290000149 0.0 0.0 0.0 16.290000149 0.0 0.0 0.0 29.1751946751" Properties=species:S:1:pos:R:3:initial_magmoms:R:1 pbc="T T T"
Si      -1.35045730      -1.32504002       1.34192475       0.00000000
Si       1.31279482      -1.31946558      -1.40776441       0.00000000
Si      -1.22616460       1.39391902      -1.42196106       0.00000000
Si       1.42894252       1.42123735       1.22487387       0.00000000
Si       0.67118059       2.19312272      -2.59667314       0.00000000
Si       2.31853943       0.45926397      -2.55339553       0.00000000
Si      -2.64828161      -2.64113030      -0.09692000       0.00000000
Si      -2.70352100       0.08200386       2.62099446       0.00000000
Si       0.02658528      -2.67977018       2.64970285       0.00000000
Si       2.70063767      -2.63709038      -0.04702166       0.00000000
