10
Lattice="16.290000149 0.0 0.0 0.0 16.290000149 0.0 0.0 0.0 29.1751946751" Properties=species:S:1:pos:R:3:initial_magmoms:R:1 pbc="T T T"
Si       1.33504696       1.36396171      -1.36925024       0.00000000
Si      -1.36192546      -1.34255665      -1.37727341       0.00000000
Si      -1.42517953       1.36230013       1.29838369       0.00000000
Si       1.40095630      -1.34122087       1.35970995       0.00000000
Si       2.70497081      -2.68762196      -0.07180015       0.00000000
Si       0.05747112      -2.71950149       2.67341061       0.00000000
Si       2.69529455       2.70987410      -0.00166299       0.00000000
Si      -0.13176981       2.79881751       2.61155920       0.00000000
Si      -2.72544734      -2.69250896      -0.02739551       0.00000000
Si       2.63057438       0.09225842       2.78596851       0.00000000
