10
Lattice="16.290000149 0.0 0.0 0.0 16.290000149 0.0 0.0 0.0 29.1751946751" Properties=species:S:1:pos:R:3:initial_magmoms:R:1 pbc="T T T"
Si      -1.43418790       1.32194980       1.28210393       0.00000000
Si      -1.37731951      -1.34012944      -1.33225609       0.00000000
Si       1.34864911       1.35786925      -1.35358316       0.00000000
Si       1.35679411      -1.33444423       1.37762352       0.00000000
Si      -0.00764001       2.71114472       2.46148200       0.00000000
Si       0.00097740      -2.70594821      -2.64446882       0.00000000
Si       2.72714150       0.01068624      -2.67524865       0.00000000
Si      -2.72834696       0.03618009      -2.67411082       0.00000000
Si      -0.01356957       2.75188602      -2.65864797       0.00000000
Si       0.01570356      -2.66752010       2.75072488       0.00000000
