10
Lattice="16.290000149 0.0 0.0 0.0 16.290000149 0.0 0.0 0.0 29.1751946751" Properties=species:S:1:pos:R:3:initial_magmoms:R:1 pbc="T T T"
Si       0.09694179      -0.68186683      -2.23214163       0.00000000
Si      -1.00574461      -1.77872955       1.14563112       0.00000000
Si       1.83171278       0.90673399       1.17287784       0.00000000
Si      -1.64735884       1.73385875      -0.04327761       0.00000000
H        2.52724691      -0.92413171      -0.76069069       0.00000000
Si      -2.31853943      -0.45926397       2.55339553       0.00000000
Si       0.54600822       2.35437743       2.50386189       0.00000000
Si      -2.09953667      -0.33674688      -3.04364967       0.00000000
Si      -2.03230784       1.97915357      -2.39671890       0.00000000
Si       2.01808667       0.35727228      -3.15509891       0.00000000
