10
Lattice="16.290000149 0.0 0.0 0.0 16.290000149 0.0 0.0 0.0 29.1751946751" Properties=species:S:1:pos:R:3:initial_magmoms:R:1 pbc="T T T"
Si       1.32968755      -1.41891114      -1.28805567       0.00000000
Si      -1.34786719      -1.37475384       1.33707000       0.00000000
Si       1.38647449       1.34882830       1.32472889       0.00000000
Si      -1.30033297       1.34755768      -1.41925652       0.00000000
Si       2.66677076      -0.08026083      -2.61497853       0.00000000
Si       0.01510083       2.69493617       2.66226569       0.00000000
Si      -2.72927549      -0.07367967      -2.64413039       0.00000000
Si      -2.67789683       2.69636969      -0.06791985       0.00000000
Si      -2.70831026      -0.01765836       2.67615308       0.00000000
Si       0.03459996      -2.73447201       2.65826869       0.00000000
