10
Lattice="16.290000149 0.0 0.0 0.0 16.290000149 0.0 0.0 0.0 29.1751946751" Properties=species:S:1:pos:R:3:initial_magmoms:R:1 pbc="T T T"
Si       1.32657616       1.32810742      -1.40414377       0.00000000
Si      -1.20927187       1.46859238       1.42538331       0.00000000
Si       1.46541583      -1.21525030       1.45257459       0.00000000
Si      -1.55473390      -1.11933478      -1.46972961       0.00000000
H        1.80703343      -3.01558854      -0.79937116       0.00000000
Si      -2.53830782       0.08304642       2.79572762       0.00000000
Si      -0.17554104       2.63891486      -2.69966829       0.00000000
Si       2.91538875       2.45930132      -0.06293089       0.00000000
H        2.01275984       3.20121309       0.91362122       0.00000000
Si      -2.60297912       2.90084178       0.20300100       0.00000000
