10
Lattice="16.290000149 0.0 0.0 0.0 16.290000149 0.0 0.0 0.0 29.1751946751" Properties=species:S:1:pos:R:3:initial_magmoms:R:1 pbc="T T T"
Si       1.37363797       1.38367261       1.30935356       0.00000000
Si       1.37002159      -1.34064746      -1.36534076       0.00000000
Si      -1.32445846       1.36432009      -1.39226947       0.00000000
Si      -1.36651924      -1.35932884       1.37677744       0.00000000
Si      -2.67317273      -2.67362885      -0.06961201       0.00000000
Si       2.67812489       0.00338832       2.68423461       0.00000000
Si      -2.68447799       2.71625978      -0.03979497       0.00000000
Si       2.70264134      -2.70656723       0.00665194       0.00000000
Si      -2.68964192       0.03552849       2.74130129       0.00000000
Si       0.05048271       2.75489967       2.68265915       0.00000000
