10
Lattice="16.290000149 0.0 0.0 0.0 16.290000149 0.0 0.0 0.0 29.1751946751" Properties=species:S:1:pos:R:3:initial_magmoms:R:1 pbc="T T T"
Si      -1.32501232      -1.33562118      -1.33767101       0.00000000
Si       1.31685836      -1.43506431       1.27638559       0.00000000
Si      -1.44264241       1.33149900       1.28306671       0.00000000
Si       1.29912411       1.29035046      -1.47239330       0.00000000
Si       2.63000586      -0.05193089       2.64222233       0.00000000
Si      -0.07657929       2.67978973       2.62357938       0.00000000
Si      -2.74022238       0.00827206      -2.59249321       0.00000000
Si       2.65386420       2.68417174      -0.14532164       0.00000000
Si      -0.14986800       2.67602674      -2.69884555       0.00000000
Si      -0.08118936      -2.77037191       2.61080065       0.00000000
