10
Lattice="16.290000149 0.0 0.0 0.0 16.290000149 0.0 0.0 0.0 29.1751946751" Properties=species:S:1:pos:R:3:initial_magmoms:R:1 pbc="T T T"
Si       2.29825838       0.07183890      -0.44789759       0.00000000
Si      -0.85688659       2.05374548      -0.84847301       0.00000000
Si      -0.11554497       0.37442565       2.38095846       0.00000000
Si      -0.91694782      -2.08472254      -0.81159557       0.00000000
H       -2.29216592       0.26288802       0.96992935       0.00000000
H       -0.97137271       2.83727820       0.45160284       0.00000000
Si      -3.56698875       0.18380007       0.11637985       0.00000000
H       -1.15491214       2.96450310       1.79739622       0.00000000
Si      -2.98875891      -1.35816084      -1.64682304       0.00000000
Si       3.08254044       2.10971792       0.42788341       0.00000000
