10
Lattice="16.290000149 0.0 0.0 0.0 16.290000149 0.0 0.0 0.0 29.1751946751" Properties=species:S:1:pos:R:3:initial_magmoms:R:1 pbc="T T T"
Si      -1.37300266       1.35912358       1.32111117       0.00000000
Si      -1.37453392      -1.36374994      -1.33146836       0.00000000
Si       1.35317773       1.37515294      -1.34296339       0.00000000
Si       1.36042678      -1.32511006       1.39098576       0.00000000
Si      -0.01290168       2.66693366       2.71063816       0.00000000
Si       2.68358204      -2.69633711       0.01768017       0.00000000
Si      -0.01451439      -2.71568963      -2.68394286       0.00000000
Si      -2.71409321       0.02604771       2.69421253       0.00000000
Si       2.69952995       0.02695995      -2.70947115       0.00000000
Si      -2.72979677       2.69356781      -0.05651235       0.00000000
