10
Lattice="16.290000149 0.0 0.0 0.0 16.290000149 0.0 0.0 0.0 29.1751946751" Properties=species:S:1:pos:R:3:initial_magmoms:R:1 pbc="T T T"
Si       1.34658191       1.34884459      -1.36744137       0.00000000
Si       1.35094763      -1.35782038       1.36128541       0.00000000
Si      -1.32985309       1.34980570       1.39130668       0.00000000
Si      -1.36503522      -1.32942691      -1.37922815       0.00000000
Si       2.67677445       2.69037497       0.05111494       0.00000000
Si      -2.70575111      -2.68288157       0.00565999       0.00000000
Si      -2.69863238       2.70637175       0.05047309       0.00000000
Si       2.69161464       0.00335574       2.72732637       0.00000000
Si       2.69901030      -0.01866834      -2.72554669       0.00000000
Si      -0.01009328      -2.71751411      -2.70880012       0.00000000
