10
Lattice="16.290000149 0.0 0.0 0.0 16.290000149 0.0 0.0 0.0 29.1751946751" Properties=species:S:1:pos:R:3:initial_magmoms:R:1 pbc="T T T"
Si       0.51985626      -0.66917692       2.23651207       0.00000000
Si      -2.01047924       1.36941886       0.08017343       0.00000000
Si       1.15438109       2.06202080      -0.59216893       0.00000000
Si      -1.22767957      -1.58763970      -1.41178767       0.00000000
Si       2.18670446      -1.42213330      -1.02959262       0.00000000
H       -1.03915540       1.11358441      -2.39977646       0.00000000
H       -2.67120164      -1.29720529      -0.97366377       0.00000000
H       -1.55892043       2.65370618      -0.58239524       0.00000000
Si      -0.00759114       2.22207005      -2.61240528       0.00000000
H        3.37256760      -1.04161519      -0.12638694       0.00000000
