10
Lattice="16.290000149 0.0 0.0 0.0 16.290000149 0.0 0.0 0.0 29.1751946751" Properties=species:S:1:pos:R:3:initial_magmoms:R:1 pbc="T T T"
Si      -1.31685836       1.43506431      -1.27638559       0.00000000
Si       1.31314750       1.38313341       1.36583674       0.00000000
Si      -1.39804772      -1.33530760       1.33441505       0.00000000
Si       1.28046813      -1.34623819      -1.45627984       0.00000000
Si      -2.64187068       0.09944312      -2.61405660       0.00000000
Si       2.64716656      -2.69283476      -0.08349941       0.00000000
Si      -0.02926844      -2.69187365       2.67524865       0.00000000
Si       2.66008453       0.02254536       2.72076195       0.00000000
Si       2.63753917       2.76656331       0.00516401       0.00000000
Si       2.69277856       0.04342914      -2.71275045       0.00000000
