10
Lattice="16.290000149 0.0 0.0 0.0 16.290000149 0.0 0.0 0.0 29.1751946751" Properties=species:S:1:pos:R:3:initial_magmoms:R:1 pbc="T T T"
Si      -1.38888541      -1.35935164       1.31352561       0.00000000
Si      -1.36971208       1.34245891      -1.35244532       0.00000000
Si       1.35179308      -1.36995643      -1.35124914       0.00000000
Si       1.37701000       1.36580248       1.33651567       0.00000000
Si       2.77252545      -0.08433333       2.52998536       0.00000000
Si       0.00718389       2.69752628      -2.68519739       0.00000000
Si      -0.06882525      -2.79989265       2.58950275       0.00000000
Si      -2.68988627       2.71086779       0.03104241       0.00000000
Si      -2.67959099       0.00861741       2.72575091       0.00000000
Si       2.72637587      -0.02692737      -2.69342480       0.00000000
