10
Lattice="16.290000149 0.0 0.0 0.0 16.290000149 0.0 0.0 0.0 29.1751946751" Properties=species:S:1:pos:R:3:initial_magmoms:R:1 pbc="T T T"
Si      -1.35596332      -0.57788776      -0.27325487       0.00000000
H        0.92554894      -1.77243347      -0.44734326       0.00000000
H        1.59931963      -0.83377108       1.17138407       0.00000000
Si       1.06376959      -1.10056870       2.55621386       0.00000000
Si      -2.71321355       0.77485015       1.05474164       0.00000000
Si      -1.81995140      -0.15591159      -2.48604751       0.00000000
Si       2.05762250      -1.83127295      -1.45251624       0.00000000
Si      -1.17162568       2.09046314       2.24150103       0.00000000
Si       0.00889434       1.13787280      -3.12469252       0.00000000
Si      -1.80936290      -2.78648598       0.34117473       0.00000000
