10
Lattice="16.290000149 0.0 0.0 0.0 16.290000149 0.0 0.0 0.0 29.1751946751" Properties=species:S:1:pos:R:3:initial_magmoms:R:1 pbc="T T T"
Si       1.32006016      -1.44054100       1.27597714       0.00000000
Si      -1.34886088      -1.36241416      -1.34722296       0.00000000
Si       1.38888541       1.35935164      -1.31352561       0.00000000
Si      -1.29070558       1.36796905       1.41222530       0.00000000
Si       2.74660806      -0.05134608       2.45535521       0.00000000
Si       0.01917333       2.70181055      -2.66597094       0.00000000
Si      -2.66452274       2.72026712       0.06739470       0.00000000
Si      -2.71666703      -0.00521280      -2.67402329       0.00000000
Si      -0.06379164      -2.77622328       2.61637311       0.00000000
Si       2.74067850      -0.01060479      -2.66477476       0.00000000
