10
Lattice="16.290000149 0.0 0.0 0.0 16.290000149 0.0 0.0 0.0 29.1751946751" Properties=species:S:1:pos:R:3:initial_magmoms:R:1 pbc="T T T"
Si       1.36352188       1.34995231      -1.34987791       0.00000000
Si       1.37381716      -1.35229807       1.34483060       0.00000000
Si      -1.35151615       1.36145305       1.36076025       0.00000000
Si      -1.37003788      -1.36159966      -1.35171594       0.00000000
Si      -0.02658528       2.69820395      -2.68268833       0.00000000
Si      -0.00229689      -2.67273290       2.70836250       0.00000000
Si       2.66452274      -2.72026712      -0.06739470       0.00000000
Si       2.68369607      -0.01845657      -2.73336564       0.00000000
Si       2.72544734       2.69250896       0.02739551       0.00000000
Si      -2.68808623       0.01065366       2.73076905       0.00000000
