10
Lattice="16.290000149 0.0 0.0 0.0 16.290000149 0.0 0.0 0.0 29.1751946751" Properties=species:S:1:pos:R:3:initial_magmoms:R:1 pbc="T T T"
Si      -1.33869592      -1.28762677      -1.43139340       0.00000000
Si       1.35096229       1.38482920      -1.35469181       0.00000000
Si      -1.12699108       1.11622339       1.75173704       0.00000000
Si       1.34387614      -1.41387427       1.37018384       0.00000000
Si       0.73611253       1.95595661       3.00489918       0.00000000
Si       2.41394996       0.27613179       2.75583054       0.00000000
Si      -2.78917383      -0.40723371       2.48397607       0.00000000
Si       0.05264928      -2.64108143      -2.74480232       0.00000000
Si       2.73614987       0.03458367      -2.70955868       0.00000000
Si      -0.04730616      -3.23874525       2.11756480       0.00000000
