10
Lattice="16.290000149 0.0 0.0 0.0 16.290000149 0.0 0.0 0.0 29.1751946751" Properties=species:S:1:pos:R:3:initial_magmoms:R:1 pbc="T T T"
Si      -1.41480280      -1.32636439       1.23889547       0.00000000
Si       1.36174627      -1.37005417      -1.26208975       0.00000000
Si       1.23103531       1.13723749       1.62517504       0.00000000
Si      -1.39551544       1.45013581      -1.19346969       0.00000000
Si      -0.36981558       1.06407910       3.41586097       0.00000000
Si       2.69915528       0.07771959      -2.51793600       0.00000000
Si      -2.49730589       0.09410733       2.73669161       0.00000000
Si      -0.05851368      -2.67963986      -2.57616969       0.00000000
Si       2.52760529       2.72823293       0.34992728       0.00000000
Si      -0.11945457      -2.61992072       2.66562084       0.00000000
