10
Lattice="16.290000149 0.0 0.0 0.0 16.290000149 0.0 0.0 0.0 29.1751946751" Properties=species:S:1:pos:R:3:initial_magmoms:R:1 pbc="T T T"
Si       1.35470899      -1.35819505       1.30372275       0.00000000
Si       1.37207413       1.25358067      -1.43194773       0.00000000
Si      -1.31061196      -1.42938235      -1.32324095       0.00000000
Si      -1.19780371       1.40227579       1.47579805       0.00000000
Si      -2.56814622       2.64085337       0.03086736       0.00000000
Si       2.72271062       2.59683779      -0.12031850       0.00000000
Si      -2.64009752      -0.07050312      -2.68864007       0.00000000
Si       2.74043415      -0.00475668       2.59638810       0.00000000
Si      -2.56532153      -0.02554272       2.77575720       0.00000000
Si       0.00908982      -2.66646125       2.69713005       0.00000000
