10
Lattice="10.86 0.0 0.0 0.0 10.86 0.0 0.0 0.0 10.86" Properties=species:S:1:pos:R:3:initial_magmoms:R:1 pbc="T T T"
Si       1.29084132      -1.33410756      -1.33419444       0.00000000
Si       1.29084132       1.38089244       1.38080556       0.00000000
Si      -1.42415868      -1.33410756       1.38080556       0.00000000
Si      -1.60341384       1.21718880      -1.30312398       0.00000000
Si      -0.18652050       2.50414224      -2.62312440       0.00000000
Si       2.62053972      -0.04144176      -2.66187288       0.00000000
Si       2.67088668       2.64247692       0.13578258       0.00000000
Si       2.64834132      -2.69160756       0.02330556       0.00000000
Si      -0.06665868      -2.69160756      -2.69169444       0.00000000
Si       2.64834132       0.02339244       2.73830556       0.00000000
