10
Lattice="10.86 0.0 0.0 0.0 10.86 0.0 0.0 0.0 10.86" Properties=species:S:1:pos:R:3:initial_magmoms:R:1 pbc="T T T"
Si       1.19803176      -1.24634790      -1.43400870       0.00000000
Si       1.24577232       1.37256282       1.38271692       0.00000000
Si      -1.51696824      -1.24634790       1.28099130       0.00000000
Si      -1.51696824       1.46865210      -1.43400870       0.00000000
Si       2.43566994      -0.12309810       2.70706134       0.00000000
Si       2.57024706      -2.64164070      -0.16169454       0.00000000
Si      -0.18076470       2.76741036       2.56010382       0.00000000
Si       2.55553176       0.11115210      -2.79150870       0.00000000
Si       2.51882496       2.82817206       0.03620724       0.00000000
Si      -0.15946824      -2.60384790      -2.79150870       0.00000000
