10
Lattice="10.86 0.0 0.0 0.0 10.86 0.0 0.0 0.0 10.86" Properties=species:S:1:pos:R:3:initial_magmoms:R:1 pbc="T T T"
Si       1.42653702      -1.39484754      -1.17738690       0.00000000
Si      -1.33620354       1.41624174      -1.27911252       0.00000000
Si      -1.33620354      -1.29875826       1.43588748       0.00000000
Si       1.37879646       1.41624174       1.43588748       0.00000000
Si       2.69958966       0.06076170      -2.52389658       0.00000000
Si      -2.69370354       0.05874174      -2.63661252       0.00000000
Si       0.18076470      -2.76741036      -2.56010382       0.00000000
Si      -2.69370354      -2.65625826       0.07838748       0.00000000
Si       0.02129646       2.77374174      -2.63661252       0.00000000
Si       0.08180838      -2.60953854       2.81801796       0.00000000
