10
Lattice="16.28999089631971 0.0 0.0 0.0 16.28999089631971 0.0 0.0 0.0 34.31420841018396" Properties=species:S:1:pos:R:3:initial_magmoms:R:1 pbc="T T T"
Si       1.33794331      -1.37939715       1.50297346       0.00000000
Si      -1.35440973       1.32993026       1.53478275       0.00000000
Si      -1.71207315      -1.12077481      -1.34153330       0.00000000
Si       0.83676517       1.83084776      -1.40443128       0.00000000
Si      -2.67108174       2.54299769       0.05966558       0.00000000
Si      -3.56295924       0.58449986      -1.15378876       0.00000000
Si      -2.70178839      -2.72291490       0.11408108       0.00000000
Si       0.65589730       0.70309106      -3.71854847       0.00000000
Si      -0.94805845       3.52849382      -1.25389476       0.00000000
Si       2.65051006       2.87150183      -0.09334156       0.00000000
