10
Lattice="16.28999089631971 0.0 0.0 0.0 16.28999089631971 0.0 0.0 0.0 34.31420841018396" Properties=species:S:1:pos:R:3:initial_magmoms:R:1 pbc="T T T"
Si       0.73024812      -2.22992181      -0.40658928       0.00000000
Si       0.58414311       1.63211139      -1.63380332       0.00000000
Si      -2.35680462      -0.42194358       0.07144222       0.00000000
Si       0.90513756       1.00152549       2.05847620       0.00000000
Si       1.06261299      -2.70409439       1.81614912       0.00000000
Si       0.25137099       3.42614538      -0.16786520       0.00000000
Si       2.34059607      -0.78960888       2.41208431       0.00000000
Si      -2.36527542      -1.75581765      -1.88409129       0.00000000
Si       2.10629700       2.83739220       1.11507514       0.00000000
Si      -3.54089214       1.63481553      -0.04220650       0.00000000
