10
Lattice="16.28999089631971 0.0 0.0 0.0 16.28999089631971 0.0 0.0 0.0 34.31420841018396" Properties=species:S:1:pos:R:3:initial_magmoms:R:1 pbc="T T T"
Si      -0.33236487       0.47417258      -2.22273841       0.00000000
Si       1.27798308       1.91448551       0.59593519       0.00000000
Si       0.87459381      -1.88418678       1.26485674       0.00000000
Si      -2.31793668      -0.40445626       0.61899435       0.00000000
Si      -1.18635183      -1.22023400       2.64542106       0.00000000
Si      -2.25178299      -2.01960555      -1.26557734       0.00000000
Si       2.92970763      -0.58938360       1.37572601       0.00000000
Si      -1.06261299       2.70409439      -1.81614912       0.00000000
Si       1.97747568       1.26743042       2.66803850       0.00000000
Si       3.33423720      -1.17309193      -0.99072038       0.00000000
