10
Lattice="16.28999089631971 0.0 0.0 0.0 16.28999089631971 0.0 0.0 0.0 34.31420841018396" Properties=species:S:1:pos:R:3:initial_magmoms:R:1 pbc="T T T"
Si      -1.35156501       1.35382932       1.35853458       0.00000000
Si      -1.35633798      -1.35741312      -1.35657867       0.00000000
Si       1.35842310       1.35726651      -1.35640710       0.00000000
Si       1.36208835      -1.35959598       1.36076501       0.00000000
Si      -2.71000440      -0.01686015       2.71573091       0.00000000
Si      -2.71387653      -0.00040725      -2.71346617       0.00000000
Si       0.00104256       2.71510317      -2.71370637       0.00000000
Si      -2.71494353       2.71428867       0.00168140       0.00000000
Si       0.00089595      -2.71502172      -2.71439266       0.00000000
Si      -2.71501683      -2.71448415       0.00137257       0.00000000
