10
Lattice="16.28999089631971 0.0 0.0 0.0 16.28999089631971 0.0 0.0 0.0 34.31420841018396" Properties=species:S:1:pos:R:3:initial_magmoms:R:1 pbc="T T T"
Si      -1.27045710       1.45197657      -1.37250048       0.00000000
Si       1.46754981      -1.27917225      -1.35891204       0.00000000
Si       1.77678288       1.00185129       1.25102811       0.00000000
Si      -1.75296690      -1.12980924       1.34000490       0.00000000
Si       0.38423223       2.45607588       2.42632472       0.00000000
Si      -2.60995122       0.08996967      -2.74596175       0.00000000
Si      -2.77944867       2.57738751       0.13427157       0.00000000
Si       0.10370214      -2.62345563      -2.74373132       0.00000000
Si      -2.75463900      -2.79684639      -0.00374025       0.00000000
Si       0.10091655       2.80904760      -2.74249601       0.00000000
