10
Lattice="16.28999089631971 0.0 0.0 0.0 16.28999089631971 0.0 0.0 0.0 34.31420841018396" Properties=species:S:1:pos:R:3:initial_magmoms:R:1 pbc="T T T"
Si      -1.35545832       1.35581670      -1.35280411       0.00000000
Si      -1.35580041      -1.35772263       1.35733359       0.00000000
Si       1.35912357       1.35720135       1.35736790       0.00000000
Si       1.36124127      -1.36001952      -1.36127972       0.00000000
Si      -2.70365130      -0.00540828      -2.70896415       0.00000000
Si      -2.71230129       2.71480995       0.00020589       0.00000000
Si      -2.71305063      -0.00070047       2.71480443       0.00000000
Si      -2.71300176      -2.71546155       0.00085786       0.00000000
Si       0.00143352       2.71494027       2.71490737       0.00000000
Si       0.00158013      -2.71555929       2.71463286       0.00000000
