10
Lattice="16.28999089631971 0.0 0.0 0.0 16.28999089631971 0.0 0.0 0.0 34.31420841018396" Properties=species:S:1:pos:R:3:initial_magmoms:R:1 pbc="T T T"
Si      -1.51622433       1.82027718      -0.22197874       0.00000000
Si       0.59754978      -0.84497859       2.15253150       0.00000000
Si       2.01969936       0.14602356      -1.32964200       0.00000000
Si      -1.66874760      -1.60407630      -0.77471232       0.00000000
Si       0.89643870      -1.28849013      -3.05602511       0.00000000
Si      -0.27619695      -3.05830089      -1.95000893       0.00000000
Si      -1.15659000       3.06502866       1.62443553       0.00000000
Si      -3.19917681      -0.14776659      -1.88096870       0.00000000
Si       1.48142889       0.93843432       3.37789256       0.00000000
Si      -1.22557815       3.18552579      -2.16629150       0.00000000
