10
Lattice="16.28999089631971 0.0 0.0 0.0 16.28999089631971 0.0 0.0 0.0 34.31420841018396" Properties=species:S:1:pos:R:3:initial_magmoms:R:1 pbc="T T T"
Si      -0.50350761      -1.79698248       1.34600989       0.00000000
Si       1.97957709      -0.70659504      -1.01106872       0.00000000
Si      -2.00797056       0.02573820      -1.19931657       0.00000000
Si       0.02296890       1.71823662       1.67003914       0.00000000
Si      -3.11604894       0.61989966       0.77690843       0.00000000
Si       2.04431355       2.45531025       0.75515321       0.00000000
Si      -1.94028561       2.73613356       0.82309538       0.00000000
Si       3.50808408       0.73280565       0.08328063       0.00000000
Si      -0.17073549      -3.59101647      -0.11992823       0.00000000
Si      -1.95835122       1.93694616      -2.53273314       0.00000000
