10
Lattice="16.28999089631971 0.0 0.0 0.0 16.28999089631971 0.0 0.0 0.0 34.31420841018396" Properties=species:S:1:pos:R:3:initial_magmoms:R:1 pbc="T T T"
Si      -1.85611518       0.27935721      -1.38536831       0.00000000
Si       1.62684972      -1.23768162      -1.18202220       0.00000000
Si      -1.03669560      -1.09750617       1.90045918       0.00000000
Si       0.92216061       2.24629326       0.04697618       0.00000000
Si       1.26205146      -0.15815961      -3.23994937       0.00000000
Si       1.91272293       2.29042287       2.15074716       0.00000000
Si       0.42378435      -2.89697287       2.34506863       0.00000000
Si      -0.98692965       0.60678621      -3.57331209       0.00000000
Si      -3.38495774       1.71048258      -0.13365392       0.00000000
Si      -3.11792066      -1.67059326      -1.71454470       0.00000000
