10
Lattice="16.28999089631971 0.0 0.0 0.0 16.28999089631971 0.0 0.0 0.0 34.31420841018396" Properties=species:S:1:pos:R:3:initial_magmoms:R:1 pbc="T T T"
Si      -1.29824784       1.31672070       1.53984410       0.00000000
Si      -1.66182435      -1.09063179      -1.41812952       0.00000000
Si       1.49237577       1.43674542      -1.36525129       0.00000000
Si       1.41190317      -1.38797316       1.51779378       0.00000000
Si      -2.82207960       2.42409861       0.09433667       0.00000000
Si      -2.60188767      -2.67173919       0.17128290       0.00000000
Si       2.76543927       2.59098966       0.23328871       0.00000000
Si       2.90597310      -2.64047868       0.03004897       0.00000000
Si      -2.65882122      -0.03878649       2.92290993       0.00000000
Si      -3.63470625       0.54534033      -1.45227217       0.00000000
