10
Lattice="16.28999089631971 0.0 0.0 0.0 16.28999089631971 0.0 0.0 0.0 34.31420841018396" Properties=species:S:1:pos:R:3:initial_magmoms:R:1 pbc="T T T"
Si       1.27294947      -1.49679036       1.24104267       0.00000000
Si      -1.32983415      -1.36140417      -1.35699044       0.00000000
Si       1.38350970       1.35161388      -1.35493159       0.00000000
Si      -1.33481889       1.41231972       1.40537351       0.00000000
Si       2.11043466       0.36020448       2.42430018       0.00000000
Si       0.53159157       2.25893334       2.54752257       0.00000000
Si      -2.69211798      -0.00671148      -2.71559366       0.00000000
Si      -2.69726725       2.71354489       0.00665696       0.00000000
Si       0.02404404       2.70893319      -2.71291715       0.00000000
Si      -2.69397993      -2.73424392       0.02906415       0.00000000
