10
Lattice="16.28999089631971 0.0 0.0 0.0 16.28999089631971 0.0 0.0 0.0 34.31420841018396" Properties=species:S:1:pos:R:3:initial_magmoms:R:1 pbc="T T T"
Si      -0.00847080      -1.33387407      -1.95553352       0.00000000
Si      -1.18408752       2.05675911      -0.11364872       0.00000000
Si       2.35680462       0.42194358      -0.07144222       0.00000000
Si      -0.92693358      -1.43252631       1.86840969       0.00000000
Si       3.08705274      -1.80797823      -0.47803150       0.00000000
Si       1.10148093      -2.68660707       2.36370125       0.00000000
Si       1.45200915      -3.13334077      -1.51092407       0.00000000
Si      -1.97391143      -2.66997498      -1.87595882       0.00000000
Si      -2.61508909      -2.74945715       0.43942800       0.00000000
Si       2.94094773       2.05405497      -1.70524554       0.00000000
