10
Lattice="16.28999089631971 0.0 0.0 0.0 16.28999089631971 0.0 0.0 0.0 34.31420841018396" Properties=species:S:1:pos:R:3:initial_magmoms:R:1 pbc="T T T"
Si       0.73964745      -0.87278562       1.99101443       0.00000000
Si      -1.79940969      -1.01384073      -1.08614825       0.00000000
Si       1.93995981      -0.50106411      -1.19705183       0.00000000
Si      -0.24747768       2.35918296       0.27646973       0.00000000
Si      -0.65516751       1.56375855      -3.01450489       0.00000000
Si      -2.75015925       0.93429666      -1.90478277       0.00000000
Si       1.35037584       0.24371469      -3.31945543       0.00000000
Si       3.53046654       0.72339003      -0.01180409       0.00000000
Si       0.58878576      -3.25863531       1.68362758       0.00000000
Si       3.04179912      -0.19541484       2.13976660       0.00000000
