10
Lattice="16.28999089631971 0.0 0.0 0.0 16.28999089631971 0.0 0.0 0.0 34.31420841018396" Properties=species:S:1:pos:R:3:initial_magmoms:R:1 pbc="T T T"
Si       2.01777714      -0.84079206      -0.78363402       0.00000000
Si       0.36152397       2.30932646       0.30186226       0.00000000
Si      -1.41480279      -0.37102104      -1.85279672       0.00000000
Si      -0.82849311      -0.97078626       1.99077423       0.00000000
Si      -3.48376311      -0.27533358      -0.73302053       0.00000000
Si      -3.00931686      -1.49151240       1.24371918       0.00000000
Si       2.59939530       2.23181864       1.05917726       0.00000000
Si       2.18207808       0.31126673      -2.87868918       0.00000000
Si       3.68452107       0.19046268       0.48763949       0.00000000
Si      -0.48490443      -2.26567836      -2.96488652       0.00000000
