10
Lattice="16.28999089631971 0.0 0.0 0.0 16.28999089631971 0.0 0.0 0.0 34.31420841018396" Properties=species:S:1:pos:R:3:initial_magmoms:R:1 pbc="T T T"
Si       1.69934022      -0.94370481       1.30394666       0.00000000
Si      -2.05511382      -1.29480318      -0.11086927       0.00000000
Si      -0.95223195       1.85681402       1.29231249       0.00000000
Si       0.40452957      -0.58370833      -2.36644639       0.00000000
Si      -1.65172455       2.50386911      -0.77979082       0.00000000
Si      -2.92970763       0.58938360      -1.37572601       0.00000000
Si       0.19290618      -2.07212940       2.67744794       0.00000000
Si      -1.08015732      -3.22637364       1.07890794       0.00000000
Si       2.62511721      -2.50808238      -0.23021415       0.00000000
Si       0.15741027       2.93656409      -2.19813510       0.00000000
