10
Lattice="16.28999089631971 0.0 0.0 0.0 16.28999089631971 0.0 0.0 0.0 34.31420841018396" Properties=species:S:1:pos:R:3:initial_magmoms:R:1 pbc="T T T"
Si      -1.35594702       1.35553977       1.36505429       0.00000000
Si       1.36037790      -1.35915615       1.36347583       0.00000000
Si      -1.37168316      -1.36498797      -1.37421275       0.00000000
Si       1.36433637       1.38064266      -1.36609058       0.00000000
Si      -2.71075374       2.71094922       0.00325985       0.00000000
Si       2.67620265      -0.00799839      -2.75212802       0.00000000
Si      -2.71378368      -2.71604799       0.00511282       0.00000000
Si       2.71811682       2.71191033       0.00748050       0.00000000
Si      -2.71301805      -0.00175932       2.72170159       0.00000000
Si       0.00219915       2.71342530       2.72231925       0.00000000
