10
Lattice="16.28999089631971 0.0 0.0 0.0 16.28999089631971 0.0 0.0 0.0 34.31420841018396" Properties=species:S:1:pos:R:3:initial_magmoms:R:1 pbc="T T T"
Si      -1.35557235       1.35609363      -1.36165718       0.00000000
Si       1.35839052      -1.35982404      -1.36097089       0.00000000
Si      -1.36203948      -1.36544409       1.38018686       0.00000000
Si       1.36430379       1.36752921       1.37634367       0.00000000
Si       2.67617007      -0.08368173       2.73793222       0.00000000
Si       2.71394658       2.71358820      -0.00288240       0.00000000
Si      -2.71453302       2.71489140       0.00298534       0.00000000
Si      -2.71432125      -2.71581993      -0.00617656       0.00000000
Si      -2.71318095      -0.00057015      -2.71833880       0.00000000
Si       2.71857294      -2.71345788      -0.00154414       0.00000000
