10
Lattice="16.28999089631971 0.0 0.0 0.0 16.28999089631971 0.0 0.0 0.0 34.31420841018396" Properties=species:S:1:pos:R:3:initial_magmoms:R:1 pbc="T T T"
Si       1.49737680       0.09089820       1.78543789       0.00000000
Si      -1.27547442      -1.96201647      -0.30426426       0.00000000
Si       1.36940256      -0.41599773      -1.88230695       0.00000000
Si      -1.08740637       2.12582871      -0.03843193       0.00000000
Si      -0.48255867      -2.67278175      -2.44090827       0.00000000
Si       3.10930488       1.62986337       1.02582383       0.00000000
Si      -0.48765744      -0.50327955      -3.63181785       0.00000000
Si       1.77223797      -3.25290123       0.77639371       0.00000000
Si       1.94797449      -2.86622550      -1.53734602       0.00000000
Si      -0.77022378       2.99806047      -2.19106637       0.00000000
