10
Lattice="16.28999089631971 0.0 0.0 0.0 16.28999089631971 0.0 0.0 0.0 34.31420841018396" Properties=species:S:1:pos:R:3:initial_magmoms:R:1 pbc="T T T"
Si      -1.36940256       0.41599773       1.88230695       0.00000000
Si       1.46424294       1.72871109      -0.68810321       0.00000000
Si       0.57857193      -2.45022777       0.34496093       0.00000000
Si      -1.85706000      -0.08728182      -1.74951089       0.00000000
Si      -1.85196123      -2.25678402      -0.55860131       0.00000000
Si      -2.64487698      -1.54601874       1.57804270       0.00000000
Si       3.14318808       1.62808776       0.98468107       0.00000000
Si       0.12797424       0.50689593       3.66774484       0.00000000
Si       0.20595447       3.74836158      -0.43277104       0.00000000
Si       0.40283541      -2.83690350       2.65870067       0.00000000
