10
Lattice="16.28999089631971 0.0 0.0 0.0 16.28999089631971 0.0 0.0 0.0 34.31420841018396" Properties=species:S:1:pos:R:3:initial_magmoms:R:1 pbc="T T T"
Si      -1.05974595      -1.71452250      -1.20063565       0.00000000
Si       1.22699538      -1.44445059       1.51503491       0.00000000
Si      -1.49406993       1.25250552       1.48774481       0.00000000
Si       1.35415512       1.31517315      -1.66579932       0.00000000
Si       2.53544076       2.58466914       0.02935925       0.00000000
Si       2.53886166      -2.83309164       0.12899748       0.00000000
Si       0.62558487      -3.62307519      -1.14823195       0.00000000
Si      -1.55719368      -0.88508457      -3.41047190       0.00000000
Si       2.58077583      -0.11318292       2.88860599       0.00000000
Si      -0.13352913       2.60208315       2.88568928       0.00000000
