10
Lattice="16.28999089631971 0.0 0.0 0.0 16.28999089631971 0.0 0.0 0.0 34.31420841018396" Properties=species:S:1:pos:R:3:initial_magmoms:R:1 pbc="T T T"
Si       1.35551859      -1.35469269       1.35819144       0.00000000
Si      -1.33953859      -1.37565792      -1.36068266       0.00000000
Si      -1.35900084       1.36041048       1.35822576       0.00000000
Si       1.36001463       1.36650294      -1.37903734       0.00000000
Si      -2.71400752      -2.71001417      -0.00212748       0.00000000
Si      -0.00026064      -2.71210255       2.71494169       0.00000000
Si       2.71661325      -2.71061202      -0.00689716       0.00000000
Si       2.71112352       2.71770957      -0.00260788       0.00000000
Si      -2.71415413       0.00226431       2.71535346       0.00000000
Si       2.71498425       0.00291591       2.71452992       0.00000000
