10
Lattice="16.28999089631971 0.0 0.0 0.0 16.28999089631971 0.0 0.0 0.0 34.31420841018396" Properties=species:S:1:pos:R:3:initial_magmoms:R:1 pbc="T T T"
Si       0.31718259       0.87223176      -2.15263444       0.00000000
Si       1.14588747       1.53119484       1.36344152       0.00000000
Si      -2.35061442      -0.04930983       0.11979097       0.00000000
Si       1.08740637      -2.12582871       0.03843193       0.00000000
Si      -2.45156355      -1.40677182      -1.90423375       0.00000000
Si       3.13905042       1.43464401       0.10153580       0.00000000
Si      -0.79444701      -0.72470952      -3.46436442       0.00000000
Si      -1.30738653       2.63779083      -2.15517369       0.00000000
Si       2.66276340       1.20653514      -2.27664606       0.00000000
Si       2.58478317      -2.03493051       1.82386982       0.00000000
