10
Lattice="16.28999089631971 0.0 0.0 0.0 16.28999089631971 0.0 0.0 0.0 34.31420841018396" Properties=species:S:1:pos:R:3:initial_magmoms:R:1 pbc="T T T"
Si      -2.25981396       0.25803360       0.49285525       0.00000000
Si       0.43424253      -2.26761687       0.29348959       0.00000000
Si       0.72700641       1.22129388       1.86720869       0.00000000
Si       0.07117101       0.87037470      -2.21697362       0.00000000
Si       0.19319940       3.32125407       0.94899428       0.00000000
Si      -2.10895227       2.64388329       0.80024210       0.00000000
Si       1.51006671      -2.69575065      -1.75654531       0.00000000
Si      -2.31614478      -0.85149459       2.61282255       0.00000000
Si      -1.07471646      -0.66082014      -3.58041513       0.00000000
Si      -0.78763779       0.58790610       3.70717189       0.00000000
