10
Lattice="16.28999089631971 0.0 0.0 0.0 16.28999089631971 0.0 0.0 0.0 34.31420841018396" Properties=species:S:1:pos:R:3:initial_magmoms:R:1 pbc="T T T"
Si      -2.01969936      -0.14602356       1.32964200       0.00000000
Si       1.27692423       1.10138319      -1.78550652       0.00000000
Si      -1.12326066      -1.43451369      -1.72638310       0.00000000
Si       1.85446989       1.07052993       1.36944651       0.00000000
Si       2.97924552      -1.08600543       1.47938929       0.00000000
Si       3.20412897       1.91495466      -0.63886229       0.00000000
Si      -1.42214958      -0.99100215       3.48217350       0.00000000
Si      -2.29589631      -3.20432445      -0.62036692       0.00000000
Si      -3.53592369       1.67425362       1.10766327       0.00000000
Si      -3.68844696      -1.75009986       0.55492969       0.00000000
