10
Lattice="16.28999089631971 0.0 0.0 0.0 16.28999089631971 0.0 0.0 0.0 34.31420841018396" Properties=species:S:1:pos:R:3:initial_magmoms:R:1 pbc="T T T"
Si       1.92720474       0.81357147       1.14664423       0.00000000
Si       1.52915859      -1.15510761      -1.46329592       0.00000000
Si      -1.18280061       1.57001391      -1.44188384       0.00000000
Si      -1.27692423      -1.10138319       1.78550652       0.00000000
Si       0.57754566      -0.03085326       3.15495303       0.00000000
Si      -2.40018489      -2.53589688       0.05912341       0.00000000
Si       0.18461457      -2.50403364      -2.83294832       0.00000000
Si      -2.53480545       0.21716199      -2.82862472       0.00000000
Si       2.98719504      -2.41505766      -0.08269729       0.00000000
Si       2.76916968       2.73976623      -0.01324529       0.00000000
