10
Lattice="16.28999089631971 0.0 0.0 0.0 16.28999089631971 0.0 0.0 0.0 34.31420841018396" Properties=species:S:1:pos:R:3:initial_magmoms:R:1 pbc="T T T"
Si       0.58958397      -0.74477880       2.12240360       0.00000000
Si      -0.88387911      -1.78341291      -1.22536107       0.00000000
Si       1.96033860       1.05733503      -0.89035126       0.00000000
Si      -2.00554335       1.32004386       0.30495054       0.00000000
Si      -1.35037584      -0.24371469       3.31945543       0.00000000
Si      -2.73864222      -2.41582329       0.19833624       0.00000000
Si       1.41488424       3.38914266      -0.84594865       0.00000000
Si      -1.48142889      -0.93843432      -3.37789256       0.00000000
Si      -2.63801889       2.12659434      -1.75345703       0.00000000
Si       0.74069001      -3.54897198      -1.22282181       0.00000000
