10
Lattice="16.28999089631971 0.0 0.0 0.0 16.28999089631971 0.0 0.0 0.0 34.31420841018396" Properties=species:S:1:pos:R:3:initial_magmoms:R:1 pbc="T T T"
Si      -1.59050673      -1.22445414      -1.18524774       0.00000000
Si       2.14338933      -0.14576292      -0.91646439       0.00000000
Si      -0.48866742      -0.91880487       2.15157070       0.00000000
Si      -0.37758591       2.36519397       0.02830924       0.00000000
Si      -0.61069581      -3.36968424      -1.01439720       0.00000000
Si      -3.53046654      -0.72339003       0.01180409       0.00000000
Si      -2.11120029       2.66704767       1.55954733       0.00000000
Si       1.97048727       0.55604286      -3.18425738       0.00000000
Si      -2.79081909      -1.59617565       2.00281852       0.00000000
Si       3.70366182       0.53587584       0.70766232       0.00000000
