10
Lattice="16.28999089631971 0.0 0.0 0.0 16.28999089631971 0.0 0.0 0.0 34.31420841018396" Properties=species:S:1:pos:R:3:initial_magmoms:R:1 pbc="T T T"
Si       0.83831598       1.46934171       1.62570516       0.00000000
Si       0.53380701      -2.09996019       0.91821442       0.00000000
Si       0.48866742       0.91880487      -2.15157070       0.00000000
Si      -2.30215167      -0.67737078      -0.14875218       0.00000000
Si      -0.19319940      -3.32125407      -0.94899428       0.00000000
Si      -1.10183931      -0.30564927      -3.33681843       0.00000000
Si      -3.21737274       0.34749828       1.67731376       0.00000000
Si      -3.04179912       0.19541484      -2.13976660       0.00000000
Si      -0.44139384       3.40465887       1.45224674       0.00000000
Si       2.78313021      -2.04077862       1.48052166       0.00000000
