10
Lattice="16.28999089631971 0.0 0.0 0.0 16.28999089631971 0.0 0.0 0.0 34.31420841018396" Properties=species:S:1:pos:R:3:initial_magmoms:R:1 pbc="T T T"
Si       1.37446893       1.33435625      -1.35855517       0.00000000
Si      -1.35783666       1.35510971       1.36049050       0.00000000
Si       1.35506073      -1.36069159       1.36083364       0.00000000
Si      -1.35982404      -1.37119628      -1.35866498       0.00000000
Si       0.05779692       2.54742368      -2.83367235       0.00000000
Si      -2.71265967       2.71055174       0.00000000       0.00000000
Si       2.71400752       2.71001417       0.00212748       0.00000000
Si       2.71265871      -2.71332497      -0.00102943       0.00000000
Si      -0.00014661       2.71227848       2.71748094       0.00000000
Si      -2.71293660      -2.71765811       0.00257357       0.00000000
