10
Lattice="16.28999089631971 0.0 0.0 0.0 16.28999089631971 0.0 0.0 0.0 34.31420841018396" Properties=species:S:1:pos:R:3:initial_magmoms:R:1 pbc="T T T"
Si       1.35694071      -1.35707994      -1.35678456       0.00000000
Si      -1.35710361       1.35707908      -1.35753947       0.00000000
Si       1.35796698       1.35745375       1.35709339       0.00000000
Si      -1.35723393      -1.35740574       1.35826007       0.00000000
Si       2.71332093      -0.00120485      -2.71363775       0.00000000
Si       0.00042354       2.71459645      -2.71398089       0.00000000
Si       2.71558363      -0.00209403       2.71350049       0.00000000
Si       2.71459462      -2.71465596      -0.00003431       0.00000000
Si      -0.00237834      -2.71522611      -2.71411815       0.00000000
Si       2.71473747       2.71490596       0.00006863       0.00000000
