10
Lattice="16.28999089631971 0.0 0.0 0.0 16.28999089631971 0.0 0.0 0.0 34.31420841018396" Properties=species:S:1:pos:R:3:initial_magmoms:R:1 pbc="T T T"
Si      -0.53976915      -2.26155701      -0.34427465       0.00000000
Si       2.32769439      -0.32824352       0.01221587       0.00000000
Si      -0.07736121       1.41178653       1.91826826       0.00000000
Si      -1.17418320       1.19983734      -1.70908873       0.00000000
Si       2.65815333       1.98329838      -0.07923155       0.00000000
Si      -3.27546288       0.09186746      -1.31361726       0.00000000
Si      -0.36686709      -2.96336279       1.92351834       0.00000000
Si      -1.40719536       3.19278201       1.27696967       0.00000000
Si      -2.73000852      -2.23994018      -1.35801987       0.00000000
Si       2.95983340      -1.43285213      -1.96195028       0.00000000
