10
Lattice="16.28999089631971 0.0 0.0 0.0 16.28999089631971 0.0 0.0 0.0 34.31420841018396" Properties=species:S:1:pos:R:3:initial_magmoms:R:1 pbc="T T T"
Si       1.17418320      -1.19983734       1.70908873       0.00000000
Si      -2.10127968      -1.10796989       0.39547147       0.00000000
Si      -0.05727564       2.37962039       0.67231866       0.00000000
Si       0.79899192       1.23159893      -2.40281947       0.00000000
Si      -2.77855272       0.44117555      -1.40712353       0.00000000
Si       2.37974094       2.33079926       0.36887795       0.00000000
Si      -2.48780880       2.57306414      -0.23124358       0.00000000
Si      -0.23301216       1.99294466       2.98605840       0.00000000
Si       0.63441405      -3.46139435       1.36481409       0.00000000
Si      -1.55582532      -3.43977752       0.35106886       0.00000000
