10
Lattice="16.28999089631971 0.0 0.0 0.0 16.28999089631971 0.0 0.0 0.0 34.31420841018396" Properties=species:S:1:pos:R:3:initial_magmoms:R:1 pbc="T T T"
Si      -1.35330983       1.27479024       1.41463835       0.00000000
Si      -1.35862577      -1.33804431      -1.35788261       0.00000000
Si       1.35843939       1.37068947      -1.35719633       0.00000000
Si       1.21375161      -1.51612659       1.38502517       0.00000000
Si       2.21542371       0.15091056       2.72877032       0.00000000
Si      -2.59371728      -0.23791545       2.72904483       0.00000000
Si      -0.00501243      -2.69762400      -2.71435834       0.00000000
Si       2.71000440       0.01686015      -2.71573091       0.00000000
Si       2.69793351       2.73269637       0.01626494       0.00000000
Si       2.72420928      -2.70785412       0.02093168       0.00000000
