10
Lattice="16.28999089631971 0.0 0.0 0.0 16.28999089631971 0.0 0.0 0.0 34.31420841018396" Properties=species:S:1:pos:R:3:initial_magmoms:R:1 pbc="T T T"
Si       0.27484488      -0.92159046       2.14262608       0.00000000
Si      -2.08481049       0.93095721      -0.72131938       0.00000000
Si       0.70871274      -1.16659206      -1.97186709       0.00000000
Si       1.12150134       2.10883824       0.43215338       0.00000000
Si       0.95136858       0.84538584      -3.11648678       0.00000000
Si      -1.33323876       1.23118191      -2.93626845       0.00000000
Si       1.93517055       2.55401136      -1.78197215       0.00000000
Si       1.16672238       1.03690737       3.35608042       0.00000000
Si      -2.27701620       3.06812376       0.19064985       0.00000000
Si       2.12573097      -2.62686513       1.95488155       0.00000000
