10
Lattice="16.28999089631971 0.0 0.0 0.0 16.28999089631971 0.0 0.0 0.0 34.31420841018396" Properties=species:S:1:pos:R:3:initial_magmoms:R:1 pbc="T T T"
Si      -1.35821133      -1.34464176       1.38455506       0.00000000
Si       1.35718506       1.37375199       1.38599626       0.00000000
Si      -1.40240610       1.36661697      -1.37210243       0.00000000
Si       1.41224526      -1.50776982      -1.44911728       0.00000000
Si      -2.71124244      -2.68897401       0.00957367       0.00000000
Si       2.69583210       2.71639008       0.01404138       0.00000000
Si      -0.00338832      -2.70008379       2.74504556       0.00000000
Si       2.72891727      -2.72083725       0.02599989       0.00000000
Si       2.70945502       0.01523115       2.74490830       0.00000000
Si      -2.71823085       0.01545921       2.74350142       0.00000000
