10
Lattice="16.28999089631971 0.0 0.0 0.0 16.28999089631971 0.0 0.0 0.0 34.31420841018396" Properties=species:S:1:pos:R:3:initial_magmoms:R:1 pbc="T T T"
Si      -1.35716877      -1.35676152      -1.35685319       0.00000000
Si       1.36094805      -1.35439947       1.35743653       0.00000000
Si       1.35824873       1.35804843      -1.35668162       0.00000000
Si      -1.35998694       1.35729909       1.35915224       0.00000000
Si       2.71456138      -2.71397916       0.00096080       0.00000000
Si      -2.71463076       0.00105885      -2.71432403       0.00000000
Si       0.00133578      -2.71516833      -2.71398089       0.00000000
Si       2.71463469       2.71479366       0.00126963       0.00000000
Si       2.71570168       0.00009774      -2.71387795       0.00000000
Si       0.00058644       2.71511946      -2.71470149       0.00000000
