10
Lattice="16.28999089631971 0.0 0.0 0.0 16.28999089631971 0.0 0.0 0.0 34.31420841018396" Properties=species:S:1:pos:R:3:initial_magmoms:R:1 pbc="T T T"
Si      -1.52361999      -1.18570023      -1.34439712       0.00000000
Si       1.24040744       1.51270569      -1.31440649       0.00000000
Si      -0.94579740       1.66462623       1.42668264       0.00000000
Si       1.47685370      -1.17165825       1.48110501       0.00000000
Si      -0.12496059      -2.47958235      -2.71614268       0.00000000
Si       2.53174197      -2.72147256       0.07542267       0.00000000
Si       0.14765256      -3.04662096       2.13187433       0.00000000
Si       2.59371728       0.23791545      -2.72904483       0.00000000
Si       2.85500725       2.44578060       0.41551098       0.00000000
Si       0.95211792       2.94643746       2.27256266       0.00000000
