10
Lattice="16.28999089631971 0.0 0.0 0.0 16.28999089631971 0.0 0.0 0.0 34.31420841018396" Properties=species:S:1:pos:R:3:initial_magmoms:R:1 pbc="T T T"
Si       0.87974049       1.56333501       1.55446882       0.00000000
Si      -2.26994634      -0.06905331       0.69753962       0.00000000
Si       0.19388358       0.63452808      -2.29514143       0.00000000
Si       0.01876608      -2.38941720       0.25327331       0.00000000
Si       0.61232481      -2.84301225      -1.94575396       0.00000000
Si      -0.84027078      -1.29567402      -3.20673320       0.00000000
Si       1.28790110       0.09016515       3.39559871       0.00000000
Si      -0.71267121       2.83146264      -2.26357234       0.00000000
Si       2.81674367      -1.34096022       2.14388431       0.00000000
Si      -0.68344695       3.40750962       1.58888599       0.00000000
