10
Lattice="16.28999089631971 0.0 0.0 0.0 16.28999089631971 0.0 0.0 0.0 34.31420841018396" Properties=species:S:1:pos:R:3:initial_magmoms:R:1 pbc="T T T"
Si      -1.97768745      -0.85747302      -0.94528834       0.00000000
Si       0.44997867       1.72871109      -1.54918443       0.00000000
Si       1.42083009      -1.81675854      -0.70378481       0.00000000
Si      -1.34860023      -0.01430262       2.29715708       0.00000000
Si      -3.26187702      -0.80428617       1.01992766       0.00000000
Si       1.29235086       2.54674602       2.30426699       0.00000000
Si       1.07377164       0.55226358      -3.62546972       0.00000000
Si       3.18907442      -1.90319328       0.90658189       0.00000000
Si       2.32865550       2.91854898      -0.95829343       0.00000000
Si       0.05380587      -1.38091959       3.66925951       0.00000000
