10
Lattice="16.28999089631971 0.0 0.0 0.0 16.28999089631971 0.0 0.0 0.0 34.31420841018396" Properties=species:S:1:pos:R:3:initial_magmoms:R:1 pbc="T T T"
Si      -1.33864704      -1.34263809       1.37195488       0.00000000
Si      -1.45728711       1.21127553      -1.37903390       0.00000000
Si       1.37604629       1.37251395       1.36859208       0.00000000
Si       1.30591947      -1.42227990      -1.42901944       0.00000000
Si       0.45371627       1.96302645      -2.55460331       0.00000000
Si       2.46139361       0.34086825      -2.71097294       0.00000000
Si      -2.69583210      -2.71639008      -0.01404138       0.00000000
Si       2.73263840      -2.69506647      -0.00639617       0.00000000
Si       0.01362292      -2.70115893       2.73086692       0.00000000
Si      -2.70101232       0.01379763       2.73117575       0.00000000
