10
Lattice="16.28999089631971 0.0 0.0 0.0 16.28999089631971 0.0 0.0 0.0 34.31420841018396" Properties=species:S:1:pos:R:3:initial_magmoms:R:1 pbc="T T T"
Si      -1.35260757       1.35128808       1.35750516       0.00000000
Si      -1.35658233      -1.35843939      -1.35602965       0.00000000
Si       1.35795069       1.35633798      -1.35705907       0.00000000
Si       1.35521397      -1.35930276       1.35963264       0.00000000
Si       2.71366965       2.71091664       0.00150983       0.00000000
Si      -2.71417464      -0.00081450      -2.71319166       0.00000000
Si      -0.00806355       2.70021411       2.72715755       0.00000000
Si      -2.71389771       2.71363707       0.00223042       0.00000000
Si       0.00039096       2.71414206      -2.71356912       0.00000000
Si       0.00057015      -2.71554300      -2.71384363       0.00000000
