10
Lattice="16.28999089631971 0.0 0.0 0.0 16.28999089631971 0.0 0.0 0.0 34.31420841018396" Properties=species:S:1:pos:R:3:initial_magmoms:R:1 pbc="T T T"
Si       1.35330983      -1.27479024      -1.41463835       0.00000000
Si      -1.24040744      -1.51270569       1.31440649       0.00000000
Si      -1.35288989       1.45608165      -1.39672632       0.00000000
Si       1.61459980       0.93307491       1.72991747       0.00000000
Si      -2.18620484       0.15192054       2.74108913       0.00000000
Si       2.54225177       2.58331707       0.10839864       0.00000000
Si       2.56706144      -2.79091683      -0.02961318       0.00000000
Si      -0.00531593      -2.61283455      -2.77252096       0.00000000
Si      -2.76402743      -2.69840592      -0.02999063       0.00000000
Si      -0.28828952       1.43373177       3.58696915       0.00000000
