10
Lattice="16.28999089631971 0.0 0.0 0.0 16.28999089631971 0.0 0.0 0.0 34.31420841018396" Properties=species:S:1:pos:R:3:initial_magmoms:R:1 pbc="T T T"
Si       1.35601218       1.35613443       1.35819144       0.00000000
Si       1.35734796      -1.35698529      -1.35764241       0.00000000
Si      -1.35773403       1.35781881      -1.35781399       0.00000000
Si      -1.36014984      -1.35951024       1.35551493       0.00000000
Si      -2.71415749      -0.00167358       2.71308872       0.00000000
Si       0.00213399      -2.71420293       2.71411815       0.00000000
Si       0.00115659      -2.71449615      -2.71466717       0.00000000
Si       2.71489140      -2.71436583       0.00003431       0.00000000
Si      -2.71514650      -2.71423551      -0.00044608       0.00000000
Si      -0.00195480       2.71522867      -2.71456423       0.00000000
