10
Lattice="16.28999089631971 0.0 0.0 0.0 16.28999089631971 0.0 0.0 0.0 34.31420841018396" Properties=species:S:1:pos:R:3:initial_magmoms:R:1 pbc="T T T"
Si       1.07346213      -0.13621698      -2.07844708       0.00000000
Si       2.23725231       0.27784224       1.06020669       0.00000000
Si      -0.97539470      -1.35643572       1.90814557       0.00000000
Si      -0.88067161       1.92073761      -1.66266158       0.00000000
Si      -2.25882516      -1.69670124      -0.59706756       0.00000000
Si       1.42128621       2.49328224       0.35172083       0.00000000
Si       0.72703899      -0.04114854       2.91025827       0.00000000
Si       2.17305342      -2.17794042      -0.41678061       0.00000000
Si      -2.78356094       2.42139447       0.19439010       0.00000000
Si      -0.09275526      -3.48219927       1.65034278       0.00000000
