10
Lattice="16.28999089631971 0.0 0.0 0.0 16.28999089631971 0.0 0.0 0.0 34.31420841018396" Properties=species:S:1:pos:R:3:initial_magmoms:R:1 pbc="T T T"
Si       1.83460491      -0.05786208       1.45711936       0.00000000
Si       0.67898349      -1.35304740      -1.79820278       0.00000000
Si      -1.39087278      -1.32973641       1.51253684       0.00000000
Si       0.01832625       2.16572292      -1.41189321       0.00000000
Si       0.84926286       1.83457980       2.55109125       0.00000000
Si       3.60009719       0.28268037      -0.09501610       0.00000000
Si      -0.53278074      -3.50660169       0.75999151       0.00000000
Si       2.88035449      -0.62957592      -2.13410476       0.00000000
Si      -0.56104389      -0.53968770      -3.59959679       0.00000000
Si      -1.54194624       1.48408416      -3.03601991       0.00000000
