10
Lattice="16.28999089631971 0.0 0.0 0.0 16.28999089631971 0.0 0.0 0.0 34.31420841018396" Properties=species:S:1:pos:R:3:initial_magmoms:R:1 pbc="T T T"
Si      -2.24932320      -0.05918157      -0.56230725       0.00000000
Si       1.39087278       1.32973641      -1.51253684       0.00000000
Si       0.85809204      -2.17686528      -0.75254533       0.00000000
Si      -0.37204731       0.89485857       2.32073984       0.00000000
Si       3.22547769       1.27187433      -0.05541748       0.00000000
Si       2.65191426      -2.46330864       0.81074226       0.00000000
Si      -2.78313021       2.04077862      -1.48052166       0.00000000
Si       2.06985627      -0.02331099      -3.31073962       0.00000000
Si       1.50405570       2.09447046       2.99367616       0.00000000
Si       3.62369162      -0.40764096       1.58734185       0.00000000
