10
Lattice="16.28999089631971 0.0 0.0 0.0 16.28999089631971 0.0 0.0 0.0 34.31420841018396" Properties=species:S:1:pos:R:3:initial_magmoms:R:1 pbc="T T T"
Si       0.87469874       0.37994796       2.08699102       0.00000000
Si      -1.87867683      -1.18983789      -0.59089100       0.00000000
Si       0.73046056       1.57208274      -1.55237566       0.00000000
Si      -1.03630464      -0.37180296       3.26256043       0.00000000
Si       2.88237608      -1.24221024       1.93062139       0.00000000
Si      -1.25488386      -2.36628540      -2.66717628       0.00000000
Si      -3.68108388       0.53742339      -0.74218243       0.00000000
Si      -1.01089224       2.95029819      -2.25420455       0.00000000
Si       1.10874368       0.44818677      -3.66053886       0.00000000
Si      -2.32865550      -2.91854898       0.95829343       0.00000000
