10
Lattice="16.28999089631971 0.0 0.0 0.0 16.28999089631971 0.0 0.0 0.0 34.31420841018396" Properties=species:S:1:pos:R:3:initial_magmoms:R:1 pbc="T T T"
Si      -1.23124707      -1.44557460      -1.36413265       0.00000000
Si       1.34100909      -1.36516716       1.39709691       0.00000000
Si       0.98971524       1.60214009      -1.45561438       0.00000000
Si      -1.38691431       1.34729262       1.42059186       0.00000000
Si      -0.86117085       3.30741476      -1.26786984       0.00000000
Si      -0.64330839      -0.90489321      -3.63600903       0.00000000
Si      -2.75612139       2.63972187       0.00750109       0.00000000
Si       2.70178839       2.72291490      -0.11408108       0.00000000
Si       2.68556844       0.00516393       2.77822742       0.00000000
Si      -0.02699253      -2.71296918       2.77891370       0.00000000
