10
Lattice="16.28999089631971 0.0 0.0 0.0 16.28999089631971 0.0 0.0 0.0 34.31420841018396" Properties=species:S:1:pos:R:3:initial_magmoms:R:1 pbc="T T T"
Si       1.35723393       1.35740574      -1.35826007       0.00000000
Si      -1.35760860      -1.35778779      -1.35777967       0.00000000
Si      -1.35584928       1.35754344       1.36018167       0.00000000
Si       1.35728280      -1.35725022       1.35959833       0.00000000
Si       0.00485442       2.69377371       2.73350568       0.00000000
Si       2.71417464       0.00032580      -2.71504463       0.00000000
Si       2.71520091       2.71485949      -0.00116668       0.00000000
Si      -0.00079821      -2.71490769      -2.71531914       0.00000000
Si       0.00013032       2.71448482      -2.71579954       0.00000000
Si      -2.71508688      -2.71541268       0.00048040       0.00000000
