10
Lattice="16.28999089631971 0.0 0.0 0.0 16.28999089631971 0.0 0.0 0.0 34.31420841018396" Properties=species:S:1:pos:R:3:initial_magmoms:R:1 pbc="T T T"
Si       0.98090235      -2.02377186      -0.56357687       0.00000000
Si      -2.14338933       0.14576292       0.91646439       0.00000000
Si       1.56027249       0.68163876       1.62412671       0.00000000
Si      -0.17290206       0.70180578      -2.26779299       0.00000000
Si       3.25824290       1.24209621      -0.00384319       0.00000000
Si       0.36686709       2.96336279      -1.92351834       0.00000000
Si      -0.76092219      -3.32047215      -1.35983853       0.00000000
Si      -2.52097524       2.51095689       0.94477363       0.00000000
Si       1.54194624      -1.48408416       3.03601991       0.00000000
Si       2.22092973      -2.83713156       1.23781713       0.00000000
