10
Lattice="16.28999089631971 0.0 0.0 0.0 16.28999089631971 0.0 0.0 0.0 34.31420841018396" Properties=species:S:1:pos:R:3:initial_magmoms:R:1 pbc="T T T"
Si       0.56681055       1.05174756      -1.95007755       0.00000000
Si      -0.59932539       1.77307432       1.49596307       0.00000000
Si      -2.23081776      -0.85815720      -0.18131638       0.00000000
Si       1.95413211      -1.20396132       0.71205454       0.00000000
Si      -2.20765338      -1.67081643       1.98367118       0.00000000
Si       1.12319550      -0.87281820      -3.25092992       0.00000000
Si      -1.79621685       0.40496940       3.04823578       0.00000000
Si       2.16305136       2.68269163      -1.23002780       0.00000000
Si      -3.51052758       1.07715996      -0.35477480       0.00000000
Si       1.21805217      -2.27380707       2.66717628       0.00000000
