10
Lattice="16.28999089631971 0.0 0.0 0.0 16.28999089631971 0.0 0.0 0.0 34.31420841018396" Properties=species:S:1:pos:R:3:initial_magmoms:R:1 pbc="T T T"
Si       0.21352932       2.14417125      -0.91268983       0.00000000
Si      -2.23181960      -0.83088774       0.23433186       0.00000000
Si       0.81479322      -0.09612729       2.27808726       0.00000000
Si       1.25182134      -1.15952220      -1.72013791       0.00000000
Si      -1.82365898      -2.30405760       2.07546174       0.00000000
Si       2.30997087       2.83732704      -0.11495266       0.00000000
Si       0.57436911      -3.40775397      -1.36419643       0.00000000
Si       0.01811448       1.86601950      -3.24471905       0.00000000
Si       2.48345937      -1.76824692       2.25609184       0.00000000
Si      -0.29481642      -3.73518297       0.82374735       0.00000000
