10
Lattice="16.28999089631971 0.0 0.0 0.0 16.28999089631971 0.0 0.0 0.0 34.31420841018396" Properties=species:S:1:pos:R:3:initial_magmoms:R:1 pbc="T T T"
Si      -1.76681081      -1.39119858       0.79094295       0.00000000
Si       0.86282266       1.49662746       1.65075455       0.00000000
Si      -0.40816061       1.47316986      -1.84112988       0.00000000
Si       1.52884256      -1.43112537      -1.25171439       0.00000000
Si       2.63845220       2.20793031       0.20262551       0.00000000
Si       1.82365898       2.30405760      -2.07546174       0.00000000
Si      -1.28790110      -0.09016515      -3.39559871       0.00000000
Si      -3.66922217      -0.51008877      -0.33085778       0.00000000
Si       0.26703708      -3.38107584      -1.58089078       0.00000000
Si       3.38495774      -1.71048258       0.13365392       0.00000000
