10
Lattice="16.28999089631971 0.0 0.0 0.0 16.28999089631971 0.0 0.0 0.0 34.31420841018396" Properties=species:S:1:pos:R:3:initial_magmoms:R:1 pbc="T T T"
Si       0.92765197       1.65024216      -1.62151882       0.00000000
Si      -1.61459980      -0.93307491      -1.72991747       0.00000000
Si       0.88067161      -1.92073761       1.66266158       0.00000000
Si      -1.90288933       0.50065686       1.85705168       0.00000000
Si       1.95413374      -2.05695459      -0.41578550       0.00000000
Si       2.30195782       0.57254463       2.01438242       0.00000000
Si      -2.85500725      -2.44578060      -0.41551098       0.00000000
Si      -0.26128997      -2.20786515      -3.14455582       0.00000000
Si       2.56090366       2.98524024      -0.43572206       0.00000000
Si       2.43664354       0.52483122      -3.12829087       0.00000000
