10
Lattice="16.28999089631971 0.0 0.0 0.0 16.28999089631971 0.0 0.0 0.0 34.31420841018396" Properties=species:S:1:pos:R:3:initial_magmoms:R:1 pbc="T T T"
Si      -0.63213901       1.10460861       1.97416614       0.00000000
Si       2.30674708      -0.59898330      -0.28497966       0.00000000
Si      -1.63881214      -1.73986974       0.22818961       0.00000000
Si      -0.07943020       1.36075257      -2.05030941       0.00000000
Si      -0.70251181      -3.31392357       1.69858858       0.00000000
Si       0.95342112      -2.21177475       2.93393509       0.00000000
Si       2.85438430      -1.99269054       1.52502722       0.00000000
Si       1.24669162       0.06441066      -3.59777813       0.00000000
Si      -2.95983340       1.43285213       1.96195028       0.00000000
Si      -0.06845758      -0.28841445       3.88162542       0.00000000
