10
Lattice="10.86 0.0 0.0 0.0 10.86 0.0 0.0 0.0 10.86" Properties=species:S:1:pos:R:3:initial_magmoms:R:1 pbc="T T T"
Si       0.46444962      -1.15132290      -2.06890602       0.00000000
Si      -2.25055038      -1.15132290       0.64609398       0.00000000
Si       1.73196366       0.43738650       1.94084490       0.00000000
Si       1.82194962      -2.50882290      -0.71140602       0.00000000
Si      -0.89305038      -2.50882290       2.00359398       0.00000000
Si      -2.25055038       1.56367710      -2.06890602       0.00000000
Si       3.17944962      -1.15132290       0.64609398       0.00000000
Si       0.46444962      -1.15132290       3.36109398       0.00000000
Si       1.60192602       0.36858840      -3.24125388       0.00000000
Si      -0.81811638       2.94421116       2.19974730       0.00000000
