10
Lattice="10.86 0.0 0.0 0.0 10.86 0.0 0.0 0.0 10.86" Properties=species:S:1:pos:R:3:initial_magmoms:R:1 pbc="T T T"
Si       1.35750000       1.35750000       1.35750000       0.00000000
Si       1.35750000      -1.35750000      -1.35750000       0.00000000
Si      -1.35750000      -1.35750000       1.35750000       0.00000000
Si      -1.35750000       1.35750000      -1.35750000       0.00000000
Si      -1.82194962       2.50882290       0.71140602       0.00000000
Si       2.70875550       2.42836116       0.00545172       0.00000000
Si      -0.24999720      -2.57333130      -2.64110856       0.00000000
Si      -0.15480930      -2.60089398       2.76229530       0.00000000
Si      -0.22002360       2.87741130      -2.52984786       0.00000000
Si      -2.71500000       0.00000000       2.71500000       0.00000000
