10
Lattice="10.86 0.0 0.0 0.0 10.86 0.0 0.0 0.0 10.86" Properties=species:S:1:pos:R:3:initial_magmoms:R:1 pbc="T T T"
Si       1.44748596       1.12629060       1.42024908       0.00000000
Si      -1.26751404      -1.58870940       1.42024908       0.00000000
Si       1.44748596      -1.58870940      -1.29475092       0.00000000
Si      -1.73196366      -0.43738650      -1.94084490       0.00000000
Si      -2.55008004       2.50682466       0.25890240       0.00000000
Si       0.08998596       2.48379060       2.77774908       0.00000000
Si      -2.62501404      -0.23120940       2.77774908       0.00000000
Si       2.79874146      -0.51784824      -2.64679920       0.00000000
Si      -2.62501404      -2.94620940       0.06274908       0.00000000
Si       2.80498596      -0.23120940       2.77774908       0.00000000
