10
Lattice="10.86 0.0 0.0 0.0 10.86 0.0 0.0 0.0 10.86" Properties=species:S:1:pos:R:3:initial_magmoms:R:1 pbc="T T T"
Si      -1.13747640      -1.51991130       1.17234786       0.00000000
Si      -1.13747640       1.19508870      -1.54265214       0.00000000
Si       1.55230668       1.33380348       0.98053854       0.00000000
Si       1.57752360      -1.51991130      -1.54265214       0.00000000
Si      -1.60192602      -0.36858840       3.24125388       0.00000000
Si      -2.43959040       2.73211536      -0.30234240       0.00000000
Si      -2.49497640      -2.87741130      -0.18515214       0.00000000
Si      -2.49497640      -0.16241130      -2.90015214       0.00000000
Si       0.22002360      -2.87741130       2.52984786       0.00000000
Si       0.22002360       2.55258870      -2.90015214       0.00000000
