10
Lattice="16.28999089631971 0.0 0.0 0.0 16.28999089631971 0.0 0.0 0.0 34.395419527814205" Properties=species:S:1:pos:R:3:initial_magmoms:R:1 pbc="T T T"
Si      -1.36206717       1.40050017      -1.39807140       0.00000000
Si       1.31569443      -1.31783005      -1.58349721       0.00000000
Si      -0.70931547      -2.44180584       0.60198897       0.00000000
Si       0.86242518       1.07057880       2.22614159       0.00000000
Si      -0.98606628      -2.00478424       2.94610691       0.00000000
Si       3.14735832       1.03391001       1.80280253       0.00000000
Si      -2.82633848       2.54396043       0.10569718       0.00000000
Si       2.71300176      -2.66564054      -0.10999661       0.00000000
Si      -2.64940381      -0.09552456      -2.86988662       0.00000000
Si       0.01716966       2.64391587      -2.92244285       0.00000000
