10
Lattice="16.28999089631971 0.0 0.0 0.0 16.28999089631971 0.0 0.0 0.0 34.395419527814205" Properties=species:S:1:pos:R:3:initial_magmoms:R:1 pbc="T T T"
Si      -2.17527279       0.85986765      -0.01176324       0.00000000
Si       0.71117579      -0.57283785      -2.17042098       0.00000000
Si      -0.66380447      -1.98685872       1.09167683       0.00000000
Si       1.29046448       1.41799141       1.42747950       0.00000000
Si       0.31365092       0.53128206       3.28431726       0.00000000
Si      -0.71996750       0.91864197      -3.33573844       0.00000000
Si      -0.07626326      -2.85811308      -2.28217176       0.00000000
Si       0.57675071      -1.73266956       3.18632465       0.00000000
Si       0.23176923      -3.73081725      -0.12341083       0.00000000
Si      -3.14671065       0.50169942       2.06210974       0.00000000
