10
Lattice="16.28999089631971 0.0 0.0 0.0 16.28999089631971 0.0 0.0 0.0 34.395419527814205" Properties=species:S:1:pos:R:3:initial_magmoms:R:1 pbc="T T T"
Si      -2.00198303       0.97919746       0.38536650       0.00000000
Si       0.97681356       0.88670935      -1.85683776       0.00000000
Si       0.26309979      -2.26395162      -0.09799260       0.00000000
Si      -1.17640027       0.11143989       2.53418649       0.00000000
Si       0.53721162      -1.64248812       2.38703740       0.00000000
Si      -0.31365092      -0.53128206      -3.28431726       0.00000000
Si      -0.97745539      -2.51814078      -2.19264043       0.00000000
Si      -3.46036157      -0.02958264      -1.22220752       0.00000000
Si       2.54283642      -2.72199384      -0.29122618       0.00000000
Si       3.30763563       0.42376806      -1.90585126       0.00000000
