10
Lattice="16.28999089631971 0.0 0.0 0.0 16.28999089631971 0.0 0.0 0.0 34.395419527814205" Properties=species:S:1:pos:R:3:initial_magmoms:R:1 pbc="T T T"
Si      -1.34783460       1.19092606      -1.43332672       0.00000000
Si      -1.25587755      -1.28139651       1.50603868       0.00000000
Si       0.79032564       1.96432802       1.26282853       0.00000000
Si       1.37367054      -1.52452476      -1.37296273       0.00000000
Si       0.54380907      -1.19403324       3.22728962       0.00000000
Si      -2.69369811       2.53973969      -0.07708018       0.00000000
Si       0.00944820       2.54949740      -2.77454246       0.00000000
Si       0.71718354       1.14430408       3.51920371       0.00000000
Si      -2.61967635      -2.81264022       0.09248933       0.00000000
Si       2.72903112       2.73789125       0.06562650       0.00000000
