10
Lattice="16.28999089631971 0.0 0.0 0.0 16.28999089631971 0.0 0.0 0.0 34.395419527814205" Properties=species:S:1:pos:R:3:initial_magmoms:R:1 pbc="T T T"
Si       1.35527913      -1.35764118       1.35800071       0.00000000
Si      -1.35891180       1.35593073       1.35734720       0.00000000
Si       1.34866539       1.34526078      -1.38461246       0.00000000
Si      -1.34079732      -1.36075257      -1.38402430       0.00000000
Si       2.71199178      -2.71091664      -0.00471218       0.00000000
Si       2.71366965      -0.00004887       2.71404089       0.00000000
Si       2.71412577       2.71477737      -0.00567525       0.00000000
Si      -0.00100998       2.71480995       2.71414407       0.00000000
Si      -0.00096111      -2.71500217       2.71424726       0.00000000
Si      -2.71507059       2.71503801      -0.00354273       0.00000000
