10
Lattice="16.28999089631971 0.0 0.0 0.0 16.28999089631971 0.0 0.0 0.0 34.395419527814205" Properties=species:S:1:pos:R:3:initial_magmoms:R:1 pbc="T T T"
Si      -1.35715248      -1.35622395       1.35696885       0.00000000
Si       1.35891180      -1.35593073      -1.35734720       0.00000000
Si       1.35790182       1.35887922       1.35679687       0.00000000
Si      -1.35615879       1.35910728      -1.36088993       0.00000000
Si       2.71419093      -2.71357191       0.00065351       0.00000000
Si       0.00030951      -2.71384884       2.71455682       0.00000000
Si      -2.71467963       0.00127062       2.71421286       0.00000000
Si      -2.71554300      -2.71417464      -0.00044714       0.00000000
Si       2.71554300       0.00166158       2.71472879       0.00000000
Si      -2.71454931       2.71588509      -0.00092868       0.00000000
