10
Lattice="16.28999089631971 0.0 0.0 0.0 16.28999089631971 0.0 0.0 0.0 34.395419527814205" Properties=species:S:1:pos:R:3:initial_magmoms:R:1 pbc="T T T"
Si       1.34421822       1.35873261      -1.37069263       0.00000000
Si      -1.32032079       1.38292326       1.37389141       0.00000000
Si      -1.36886499      -1.35817875      -1.36972956       0.00000000
Si       1.46932542      -1.34568432       1.38152719       0.00000000
Si      -0.64953117      -2.02220802       2.36891705       0.00000000
Si       0.49475988       2.22734799       2.77791322       0.00000000
Si      -2.36563380      -0.08099388       2.84464037       0.00000000
Si       2.71107954       2.70803331       0.00932116       0.00000000
Si       2.70275535      -2.72075580      -0.03081831       0.00000000
Si       2.70265761       0.00158013      -2.72793664       0.00000000
