10
Lattice="16.28999089631971 0.0 0.0 0.0 16.28999089631971 0.0 0.0 0.0 34.395419527814205" Properties=species:S:1:pos:R:3:initial_magmoms:R:1 pbc="T T T"
Si      -0.70781679      -2.05949583      -1.04314487       0.00000000
Si       2.11885659       0.67652370      -0.98738986       0.00000000
Si      -1.71610263       1.94121414       0.47572331       0.00000000
Si       0.64953117       2.02220802      -2.36891705       0.00000000
Si      -2.09020248      -0.68852943      -2.36203797       0.00000000
Si      -0.67078962       3.40513128      -0.99502565       0.00000000
Si      -3.44893509       0.68704704      -0.83116578       0.00000000
Si       2.08204119       2.48715720       1.72895552       0.00000000
Si       2.77620696      -2.63490750       0.29676385       0.00000000
Si      -0.71933382       0.66402927      -3.73864661       0.00000000
