10
Lattice="16.28999089631971 0.0 0.0 0.0 16.28999089631971 0.0 0.0 0.0 34.395419527814205" Properties=species:S:1:pos:R:3:initial_magmoms:R:1 pbc="T T T"
Si       1.03402404      -1.83923874       1.02591275       0.00000000
Si      -1.25473725      -0.49731741      -1.92291140       0.00000000
Si       1.85562648       1.30427514      -0.75590856       0.00000000
Si      -1.25444403       1.11408939       1.78570799       0.00000000
Si       0.49368474       2.68421733       2.27267862       0.00000000
Si       0.82699443      -1.45784097       3.37993658       0.00000000
Si       2.59255350       2.53302984       1.12273591       0.00000000
Si       0.42761250      -0.60207840      -3.75178567       0.00000000
Si       0.99165375       3.17309652      -1.89133639       0.00000000
Si      -2.43778221       1.35068535      -2.77172204       0.00000000
