10
Lattice="16.28999089631971 0.0 0.0 0.0 16.28999089631971 0.0 0.0 0.0 34.395419527814205" Properties=species:S:1:pos:R:3:initial_magmoms:R:1 pbc="T T T"
Si      -1.34372952      -1.34653140       1.38266568       0.00000000
Si       1.37108043       1.37037996       1.38063635       0.00000000
Si       1.28892996      -1.39753539      -1.44460499       0.00000000
Si      -1.35650088       1.23113304      -1.59454158       0.00000000
Si       2.12579613       0.43007229      -2.68988415       0.00000000
Si       0.36989703       2.37148191      -2.82927734       0.00000000
Si      -2.70057249      -2.70309744       0.00962728       0.00000000
Si      -2.69705385       2.71277370      -0.01570152       0.00000000
Si       2.73323394      -2.69478954      -0.00404490       0.00000000
Si      -2.70168021       0.00892692       2.74046002       0.00000000
