10
Lattice="16.28999089631971 0.0 0.0 0.0 16.28999089631971 0.0 0.0 0.0 34.395419527814205" Properties=species:S:1:pos:R:3:initial_magmoms:R:1 pbc="T T T"
Si       1.34710155       1.35723393      -1.38895661       0.00000000
Si      -1.36761066      -1.35661491      -1.39122671       0.00000000
Si      -1.28344023       1.42819317       1.47009545       0.00000000
Si       1.48411674      -1.38497580       1.58528577       0.00000000
Si       2.70990666       2.71630863       0.00464338       0.00000000
Si      -2.72730438      -2.70207117      -0.02978645       0.00000000
Si       2.71096551      -2.71968066      -0.01592509       0.00000000
Si      -2.72354139       2.71497285      -0.00749821       0.00000000
Si      -2.78848962       0.05639598       2.65914577       0.00000000
Si       2.70361872       0.00356751      -2.75259817       0.00000000
