10
Lattice="16.28999089631971 0.0 0.0 0.0 16.28999089631971 0.0 0.0 0.0 34.395419527814205" Properties=species:S:1:pos:R:3:initial_magmoms:R:1 pbc="T T T"
Si      -1.40877549      -1.81586259      -0.14298184       0.00000000
Si       0.34016778      -0.20427660       2.31354040       0.00000000
Si      -1.04353740       2.10385350      -0.19423104       0.00000000
Si       1.77200991      -0.85304214      -1.32350209       0.00000000
Si       1.92689523      -2.86000272      -0.04980460       0.00000000
Si       0.58047786       3.09469275      -1.71997831       0.00000000
Si       1.80836919       1.55302344       2.72439391       0.00000000
Si      -1.54165302       2.71624347       2.03376790       0.00000000
Si      -1.53143919       0.77608818       3.35156034       0.00000000
Si       3.69141174       0.58443633      -0.83312632       0.00000000
