10
Lattice="16.28999089631971 0.0 0.0 0.0 16.28999089631971 0.0 0.0 0.0 34.395419527814205" Properties=species:S:1:pos:R:3:initial_magmoms:R:1 pbc="T T T"
Si       0.32532759      -0.66533247      -2.18067082       0.00000000
Si       2.09795652      -0.56912373       0.91701679       0.00000000
Si      -1.73701899      -1.49289705       0.67800289       0.00000000
Si      -0.60916455       2.26360953       0.61275474       0.00000000
Si      -3.51392242      -0.10635741      -0.04007069       0.00000000
Si       1.59984090       0.04326624       3.14501573       0.00000000
Si       2.62057230      -0.40733145      -2.53876173       0.00000000
Si       3.72197178       0.42171552      -0.60873047       0.00000000
Si      -3.11059668       2.14619121       0.67480411       0.00000000
Si      -0.89256168      -2.81846322      -2.49342854       0.00000000
