10
Lattice="16.28999089631971 0.0 0.0 0.0 16.28999089631971 0.0 0.0 0.0 34.395419527814205" Properties=species:S:1:pos:R:3:initial_magmoms:R:1 pbc="T T T"
Si      -1.38750075      -1.14474717       1.62501048       0.00000000
Si      -1.46798964       0.14213025      -2.03693228       0.00000000
Si       1.35580041       1.57679055       1.50597818       0.00000000
Si       2.14477398      -1.20401019      -1.75093420       0.00000000
Si      -1.36264221       2.57346162      -2.25083751       0.00000000
Si       2.53772136       1.30795668      -2.34972440       0.00000000
Si       0.01172880      -2.35743993       3.11014705       0.00000000
Si      -2.36742570      -3.11072211       0.42698120       0.00000000
Si       2.94505281      -2.65486275       0.25738107       0.00000000
Si       3.08219832       2.71713942       0.27124243       0.00000000
