10
Lattice="16.28999089631971 0.0 0.0 0.0 16.28999089631971 0.0 0.0 0.0 34.395419527814205" Properties=species:S:1:pos:R:3:initial_magmoms:R:1 pbc="T T T"
Si       1.67570343      -1.03447201       1.29436915       0.00000000
Si       0.33723558       1.19682630      -2.00745539       0.00000000
Si      -1.17921681       1.36174626       1.53551557       0.00000000
Si      -1.73617843      -1.28089899      -0.98498218       0.00000000
Si      -1.82468688       2.20876110      -1.84741341       0.00000000
Si      -2.76083083      -2.12296886       0.90666377       0.00000000
Si      -3.28651469       0.34647201      -1.67891016       0.00000000
Si      -3.24141147       0.09630648       1.79695530       0.00000000
Si      -1.60925652       3.33322722       0.28438149       0.00000000
Si       3.63786651      -0.78032032       0.08168917       0.00000000
