10
Lattice="16.28999089631971 0.0 0.0 0.0 16.28999089631971 0.0 0.0 0.0 34.395419527814205" Properties=species:S:1:pos:R:3:initial_magmoms:R:1 pbc="T T T"
Si       1.34934957       1.36179513      -1.38668651       0.00000000
Si      -1.36415718      -1.35299853      -1.38524190       0.00000000
Si      -1.35650088       1.40667182       1.40639510       0.00000000
Si       1.44010116      -1.28677968       1.47759365       0.00000000
Si      -0.06494823      -2.65857687       2.66664397       0.00000000
Si      -2.74335492      -2.68464087      -0.01661300       0.00000000
Si       2.71194291       2.71678660      -0.04822241       0.00000000
Si       2.72354139      -2.71497285       0.00749821       0.00000000
Si      -2.71788224       2.73256998      -0.00718865       0.00000000
Si       2.71104696       0.00294849      -2.74386173       0.00000000
