10
Lattice="16.28999089631971 0.0 0.0 0.0 16.28999089631971 0.0 0.0 0.0 34.395419527814205" Properties=species:S:1:pos:R:3:initial_magmoms:R:1 pbc="T T T"
Si       1.25587755       1.28139651      -1.50603868       0.00000000
Si      -1.48310676       1.25812266       1.44130647       0.00000000
Si      -1.36379880      -1.53124371      -1.41354935       0.00000000
Si       1.79968662       0.08736327       1.72125094       0.00000000
Si       1.97306109       2.42570059       2.01316503       0.00000000
Si      -0.09195705       2.47232257      -2.93936540       0.00000000
Si       2.04620319       3.24572453      -0.24321015       0.00000000
Si       0.81479322      -1.11219975       3.60302540       0.00000000
Si      -2.88041409       2.60593315      -0.03219413       0.00000000
Si       2.62954809      -0.24312825      -2.87900141       0.00000000
