10
Lattice="16.28999089631971 0.0 0.0 0.0 16.28999089631971 0.0 0.0 0.0 34.395419527814205" Properties=species:S:1:pos:R:3:initial_magmoms:R:1 pbc="T T T"
Si      -2.28858031       0.55842120       0.09895568       0.00000000
Si       0.13077612      -2.37538662       0.21999323       0.00000000
Si       1.12443354       0.85266747      -1.96889810       0.00000000
Si       0.90639189       1.02179025       2.07363221       0.00000000
Si      -0.37581030       3.18637287       1.09570110       0.00000000
Si       3.25379718       0.76038462       1.67099921       0.00000000
Si       2.46159819      -2.83832792       0.17097973       0.00000000
Si      -3.42322037      -0.61975305      -1.55931722       0.00000000
Si       3.72711942      -0.88063740      -0.01874551       0.00000000
Si       3.13421229      -0.34995807      -2.26074340       0.00000000
