10
Lattice="16.28999089631971 0.0 0.0 0.0 16.28999089631971 0.0 0.0 0.0 34.395419527814205" Properties=species:S:1:pos:R:3:initial_magmoms:R:1 pbc="T T T"
Si      -1.96512786       0.99890280      -0.77754329       0.00000000
Si       0.26746551      -2.34642789      -0.03886685       0.00000000
Si       0.57371751       0.82424142       2.15545896       0.00000000
Si       1.56501288       0.90411129      -1.54841386       0.00000000
Si       0.14651226      -2.85832485       2.29004831       0.00000000
Si       2.02888692      -2.59773372      -1.62697304       0.00000000
Si      -1.32937803       3.31170813      -1.16545505       0.00000000
Si       2.93438286       2.37073257      -0.19526291       0.00000000
Si       0.45836802      -0.98116299       3.63632018       0.00000000
Si      -2.70205488      -0.22985190      -2.65618776       0.00000000
