10
Lattice="16.28999089631971 0.0 0.0 0.0 16.28999089631971 0.0 0.0 0.0 34.395419527814205" Properties=species:S:1:pos:R:3:initial_magmoms:R:1 pbc="T T T"
Si       1.58715099       1.66894308      -0.36018903       0.00000000
Si      -2.11429539       0.71811207      -0.73891721       0.00000000
Si       0.34976259      -2.36481930       0.14067734       0.00000000
Si       1.07149104       1.35032697       2.08986686       0.00000000
Si      -0.86657913      -2.04703398       2.08876620       0.00000000
Si       0.40796676      -0.59807106       3.45514018       0.00000000
Si      -3.44844639      -1.15375554      -0.47936923       0.00000000
Si      -0.63329004      -3.08219180      -1.92005658       0.00000000
Si       2.53460997       1.15657371      -2.52362774       0.00000000
Si      -2.07409167       0.99318501      -3.09858189       0.00000000
