10
Lattice="16.28999089631971 0.0 0.0 0.0 16.28999089631971 0.0 0.0 0.0 34.395419527814205" Properties=species:S:1:pos:R:3:initial_magmoms:R:1 pbc="T T T"
Si       1.05617844       1.60298487       1.39853371       0.00000000
Si      -1.67036031      -1.12368420       1.41546315       0.00000000
Si       1.76924061      -1.81310958      -0.05358809       0.00000000
Si      -0.80027883       1.45085256      -2.00831527       0.00000000
Si       1.47784509       0.67872285      -2.87848548       0.00000000
Si       2.28490056      -1.49449347      -2.50364399       0.00000000
Si      -0.22757130      -2.43159201       2.84273971       0.00000000
Si       2.50048242       0.30573072       2.83909380       0.00000000
Si       0.69774957      -3.16343655      -2.14345495       0.00000000
Si       1.89304461       3.43059255       0.15325455       0.00000000
