10
Lattice="16.28999089631971 0.0 0.0 0.0 16.28999089631971 0.0 0.0 0.0 34.395419527814205" Properties=species:S:1:pos:R:3:initial_magmoms:R:1 pbc="T T T"
Si      -0.66352428      -1.94839803       1.36527332       0.00000000
Si       0.51565995       0.31861611      -2.45005589       0.00000000
Si      -1.76924061       1.81310958       0.05358809       0.00000000
Si       2.03610339       0.80852157       1.34505568       0.00000000
Si      -1.07149104      -1.35032697      -2.08986686       0.00000000
Si      -1.99681191      -0.61848243       2.89632781       0.00000000
Si       0.73124181       2.11884030       2.89268189       0.00000000
Si      -0.29139552       2.49183243      -2.82489738       0.00000000
Si      -0.71306217       3.41609445       1.45212181       0.00000000
Si      -3.43960092       0.68942538       1.46905124       0.00000000
