10
Lattice="16.28999089631971 0.0 0.0 0.0 16.28999089631971 0.0 0.0 0.0 34.395419527814205" Properties=species:S:1:pos:R:3:initial_magmoms:R:1 pbc="T T T"
Si       1.05239916       1.68412536       1.30898721       0.00000000
Si       1.23773049      -1.41874497      -1.47432609       0.00000000
Si      -1.00660797      -1.79146017       1.28291547       0.00000000
Si      -1.48574574       1.27764099      -1.48113638       0.00000000
Si      -0.72791865       3.27158586       1.55962677       0.00000000
Si       2.63042775      -2.67517638       0.06022641       0.00000000
Si       2.59274898       2.71588509      -0.09159505       0.00000000
Si      -2.71259451       2.61234585       0.12007448       0.00000000
Si       2.57481369      -0.07306065      -2.85984315       0.00000000
Si       0.79327413      -3.53618433       1.40127017       0.00000000
