10
Lattice="16.28999089631971 0.0 0.0 0.0 16.28999089631971 0.0 0.0 0.0 34.395419527814205" Properties=species:S:1:pos:R:3:initial_magmoms:R:1 pbc="T T T"
Si      -1.46820141      -1.75730004      -0.41085352       0.00000000
Si       1.89205092      -0.62188704      -1.20741748       0.00000000
Si       0.76844817      -0.08456139       2.21530702       0.00000000
Si      -1.22997645       1.97783406      -0.29249881       0.00000000
Si       3.25918917       1.12801734      -0.44597126       0.00000000
Si      -3.33980838      -0.77693526       0.62716643       0.00000000
Si       2.58750360       1.44762714       1.84820451       0.00000000
Si      -0.92978433       1.18732923       3.16599695       0.00000000
Si       0.13269834      -2.39736672       2.60321878       0.00000000
Si      -3.35002221       1.16322003      -0.69062601       0.00000000
