10
Lattice="16.28999089631971 0.0 0.0 0.0 16.28999089631971 0.0 0.0 0.0 34.395419527814205" Properties=species:S:1:pos:R:3:initial_magmoms:R:1 pbc="T T T"
Si      -0.22705002       0.56303127       2.26277273       0.00000000
Si      -1.99177830       1.05932241      -0.89696425       0.00000000
Si      -0.47697120      -2.37298059       0.26364104       0.00000000
Si       2.18869182       0.73862118      -0.78689885       0.00000000
Si       1.31676957       2.84267016      -1.20490661       0.00000000
Si      -3.44976588       0.29227518       0.80389019       0.00000000
Si      -2.32554411       0.08532702      -3.00729640       0.00000000
Si      -2.47925655       0.49024755       2.90376613       0.00000000
Si       0.64920537      -1.05982740       3.64804902       0.00000000
Si      -0.59408001      -2.79384903       2.63238611       0.00000000
