10
Lattice="16.28999089631971 0.0 0.0 0.0 16.28999089631971 0.0 0.0 0.0 34.395419527814205" Properties=species:S:1:pos:R:3:initial_magmoms:R:1 pbc="T T T"
Si       1.25188650      -1.38090330       1.54023463       0.00000000
Si      -1.10480409      -1.73646513      -1.29797521       0.00000000
Si      -1.45213947       1.32341770       1.52172988       0.00000000
Si       1.85886819       0.91852794      -1.45736367       0.00000000
Si       2.58432705       2.58512593       0.18776470       0.00000000
Si       2.50805727      -2.85078258       0.16558652       0.00000000
Si      -2.80730457       2.60690566       0.00053657       0.00000000
Si       0.65109501      -3.67787475      -1.15858202       0.00000000
Si       2.61022815      -0.02681334       2.91510286       0.00000000
Si       3.55309335      -1.21906215      -1.17356691       0.00000000
