10
Lattice="16.28999089631971 0.0 0.0 0.0 16.28999089631971 0.0 0.0 0.0 34.395419527814205" Properties=species:S:1:pos:R:3:initial_magmoms:R:1 pbc="T T T"
Si      -1.35565380       1.33410213      -1.38134834       0.00000000
Si       1.35340971       1.36163223       1.36822648       0.00000000
Si      -1.36205577      -1.35839866       1.36777934       0.00000000
Si       1.47491845      -1.28001770      -1.40452398       0.00000000
Si       0.14195466       2.19284577      -3.06412252       0.00000000
Si       2.70786131       2.69597871       0.00126575       0.00000000
Si      -2.70350469      -2.72090933       0.00948282       0.00000000
Si       2.71558277      -2.71292750       0.00568901       0.00000000
Si       2.70704681       0.00237834       2.72581444       0.00000000
Si      -0.00715074      -2.71199764       2.72732784       0.00000000
