10
Lattice="16.28999089631971 0.0 0.0 0.0 16.28999089631971 0.0 0.0 0.0 34.395419527814205" Properties=species:S:1:pos:R:3:initial_magmoms:R:1 pbc="T T T"
Si       1.09936323       0.27270112      -2.03070670       0.00000000
Si       1.46034963       0.80043196       1.68056114       0.00000000
Si      -0.23038947      -2.38651825      -0.20812680       0.00000000
Si      -1.85202639       1.44447340      -0.53072162       0.00000000
Si      -0.06841800       0.91728013       3.41825310       0.00000000
Si       1.02421746       2.65749196      -2.22438742       0.00000000
Si       3.20379407      -0.76317021      -1.50242716       0.00000000
Si      -3.34392975      -0.01976140      -1.67044888       0.00000000
Si      -2.35082619      -2.91420022       0.58224599       0.00000000
Si      -1.98692388      -0.44668320       3.26371439       0.00000000
