10
Lattice="16.28999089631971 0.0 0.0 0.0 16.28999089631971 0.0 0.0 0.0 34.395419527814205" Properties=species:S:1:pos:R:3:initial_magmoms:R:1 pbc="T T T"
Si      -1.60189344       1.67400927      -0.29738296       0.00000000
Si      -0.56493720      -1.32088768      -1.84775737       0.00000000
Si       2.33987931      -0.13929579      -0.13716901       0.00000000
Si      -0.51227163      -1.63260986       1.67148074       0.00000000
Si       2.42813853      -2.45305313       0.20289869       0.00000000
Si       0.81458145      -3.18299174      -1.34087178       0.00000000
Si      -2.89942452      -1.05741322      -1.83540940       0.00000000
Si      -3.60971739       0.43789149      -0.20922745       0.00000000
Si      -1.48094019       2.18590623      -2.62629812       0.00000000
Si       0.38547027       1.01485071       3.70965126       0.00000000
