10
Lattice="16.28999089631971 0.0 0.0 0.0 16.28999089631971 0.0 0.0 0.0 34.395419527814205" Properties=species:S:1:pos:R:3:initial_magmoms:R:1 pbc="T T T"
Si       1.36494629       1.35236322       1.38130018       0.00000000
Si      -1.35391077      -1.36076886       1.38408621       0.00000000
Si       1.26286989      -1.54976544      -1.35594387       0.00000000
Si      -1.30720734       1.34814411      -1.53961895       0.00000000
Si      -2.69692353       2.68877853       0.00320222       0.00000000
Si      -2.71696023      -2.71093293      -0.00230105       0.00000000
Si       2.72750705       2.70829395      -0.00499078       0.00000000
Si       0.00436722       2.70853830       2.74236209       0.00000000
Si      -2.70803331      -0.00501732       2.74301560       0.00000000
Si       0.00778662      -2.71979469       2.74184616       0.00000000
