10
Lattice="16.28999089631971 0.0 0.0 0.0 16.28999089631971 0.0 0.0 0.0 34.395419527814205" Properties=species:S:1:pos:R:3:initial_magmoms:R:1 pbc="T T T"
Si      -1.46427130       1.14346026       1.50376858       0.00000000
Si       1.36206717      -1.40050017       1.39807140       0.00000000
Si       1.37923683       1.24341570      -1.52437145       0.00000000
Si      -1.28733664      -1.49602473      -1.47181522       0.00000000
Si       2.67776160      -2.71833022      -0.18542581       0.00000000
Si      -2.66067406       2.78609499      -0.01172884       0.00000000
Si       0.03620127       2.56960089      -3.05441815       0.00000000
Si       3.11206929       2.49758280      -0.21748236       0.00000000
Si      -2.09762650      -3.43869194      -0.17417850       0.00000000
Si      -2.68051528      -0.14097366      -3.02765850       0.00000000
