10
Lattice="16.28999089631971 0.0 0.0 0.0 16.28999089631971 0.0 0.0 0.0 34.395419527814205" Properties=species:S:1:pos:R:3:initial_magmoms:R:1 pbc="T T T"
Si       1.35584928       1.35694071      -1.35634973       0.00000000
Si       1.35304740      -1.35912357       1.35896379       0.00000000
Si      -1.35881406      -1.35801585      -1.35652171       0.00000000
Si      -1.35902583       1.35581670       1.36130267       0.00000000
Si       0.00840564       2.70663237       2.70575158       0.00000000
Si       2.71254564       2.71404432       0.00030956       0.00000000
Si       2.71350675      -0.00066789      -2.71366254       0.00000000
Si      -0.00118917       2.71450044      -2.71362814       0.00000000
Si       2.71394658      -2.71440270       0.00134142       0.00000000
Si      -0.00138465      -2.71555929      -2.71383451       0.00000000
