10
Lattice="16.28999089631971 0.0 0.0 0.0 16.28999089631971 0.0 0.0 0.0 34.395419527814205" Properties=species:S:1:pos:R:3:initial_magmoms:R:1 pbc="T T T"
Si      -1.72928124      -1.63659114       0.27819031       0.00000000
Si       1.77095662      -1.05160095      -1.36522375       0.00000000
Si      -1.25160957       1.86082299      -1.06656816       0.00000000
Si       0.90305311       0.66054321       2.36052457       0.00000000
Si       0.19126089      -3.00395745       1.28205558       0.00000000
Si      -1.27285173       0.21173742       3.22391887       0.00000000
Si      -2.07752886       2.08111266       1.99727434       0.00000000
Si      -2.37443040       0.36004158      -2.69264692       0.00000000
Si       0.32772222      -2.47831173      -2.66151905       0.00000000
Si      -1.01239092      -3.57871752      -1.04111554       0.00000000
