10
Lattice="16.28999089631971 0.0 0.0 0.0 16.28999089631971 0.0 0.0 0.0 34.395419527814205" Properties=species:S:1:pos:R:3:initial_magmoms:R:1 pbc="T T T"
Si      -0.76139460      -2.12786496      -0.69251776       0.00000000
Si       0.10055817      -0.32032656       2.37810064       0.00000000
Si       2.19756077       0.62291331      -0.78431919       0.00000000
Si      -1.38917862       1.91396097      -0.63841374       0.00000000
Si       0.07965810       3.40698834       0.49319620       0.00000000
Si       2.32472051       2.59256979       0.48903435       0.00000000
Si      -1.72631646      -2.79223632       1.41681691       0.00000000
Si      -2.02127949       0.26951805       3.19719361       0.00000000
Si      -1.40318802       1.85984559      -3.00062368       0.00000000
Si      -2.64820014      -1.91207133      -2.06307281       0.00000000
