10
Lattice="16.28999089631971 0.0 0.0 0.0 16.28999089631971 0.0 0.0 0.0 34.395419527814205" Properties=species:S:1:pos:R:3:initial_magmoms:R:1 pbc="T T T"
Si      -2.32839486       0.41371713       0.14642138       0.00000000
Si       0.90481176       2.11685292       0.84550868       0.00000000
Si       0.39996837      -1.77297102       1.77446069       0.00000000
Si       1.05634134       0.14177187      -2.34783265       0.00000000
Si       2.88759916       1.14733728       1.92425282       0.00000000
Si       1.56170601      -0.35038161       3.31099922       0.00000000
Si       2.00622753      -3.12497586       0.44562730       0.00000000
Si       0.27466569       3.66816591      -0.89758337       0.00000000
Si       1.05262722       2.49867423      -2.76164417       0.00000000
Si      -3.57168024      -1.32030450      -0.86924153       0.00000000
