10
Lattice="16.28999089631971 0.0 0.0 0.0 16.28999089631971 0.0 0.0 0.0 34.395419527814205" Properties=species:S:1:pos:R:3:initial_magmoms:R:1 pbc="T T T"
Si      -1.34775315      -1.36536264       1.34788845       0.00000000
Si      -1.35591444       1.35741312      -1.35652171       0.00000000
Si       1.35638685      -1.35795069      -1.35755357       0.00000000
Si       1.35664749       1.35123921       1.37289394       0.00000000
Si       0.01482390      -2.64217284       2.76934875       0.00000000
Si      -2.71549413       2.71199178       0.00574404       0.00000000
Si       2.71442226      -2.71339272       0.00543448       0.00000000
Si      -2.71419093      -0.00079821      -2.71397209       0.00000000
Si       2.71412785       2.71413595       0.00371471       0.00000000
Si       0.00086337       2.71398115      -2.71452242       0.00000000
