10
Lattice="16.28999089631971 0.0 0.0 0.0 16.28999089631971 0.0 0.0 0.0 34.395419527814205" Properties=species:S:1:pos:R:3:initial_magmoms:R:1 pbc="T T T"
Si      -2.31195825       0.36740466       0.13513968       0.00000000
Si       0.80467713      -1.86937524       1.22664453       0.00000000
Si       1.29143862       1.96353144       0.45278156       0.00000000
Si       0.82591929      -0.22028967      -3.06384250       0.00000000
Si       2.98058197      -1.42056945       0.36325023       0.00000000
Si       2.07752886      -2.08111266      -1.99727434       0.00000000
Si       3.38390771       0.83197917       1.07812503       0.00000000
Si      -2.63681343       0.49124124       2.47826015       0.00000000
Si      -2.74866057       2.25012141      -1.38572344       0.00000000
Si      -0.54071397      -3.80418741       0.58922826       0.00000000
