10
Lattice="16.28999089631971 0.0 0.0 0.0 16.28999089631971 0.0 0.0 0.0 34.395419527814205" Properties=species:S:1:pos:R:3:initial_magmoms:R:1 pbc="T T T"
Si      -1.29143862      -1.96353144      -0.45278156       0.00000000
Si      -0.62380926       0.85190184       2.15903609       0.00000000
Si       2.09246909      -1.13155227       0.62534347       0.00000000
Si      -0.43403076       2.13398253      -1.36718429       0.00000000
Si       1.20603440      -0.48817872       2.81475073       0.00000000
Si       0.70594344       3.51112121       0.33645618       0.00000000
Si       1.68914335      -3.38410089      -0.08953133       0.00000000
Si       2.81037428       2.47524988       0.86473573       0.00000000
Si      -2.89466784       2.24375106      -1.28088614       0.00000000
Si      -0.48676149      -3.83290668       0.77386298       0.00000000
