10
Lattice="16.28999089631971 0.0 0.0 0.0 16.28999089631971 0.0 0.0 0.0 34.395419527814205" Properties=species:S:1:pos:R:3:initial_magmoms:R:1 pbc="T T T"
Si       0.77796153      -1.16949168      -1.86406080       0.00000000
Si      -2.35028862       0.36551502       0.18611372       0.00000000
Si       0.65490687       2.25354231      -0.53237260       0.00000000
Si       0.63014607      -1.55131299       1.74309204       0.00000000
Si      -0.52914807       0.22221189       3.04509698       0.00000000
Si       3.13781305      -0.23501583      -1.50280551       0.00000000
Si      -2.73294072       1.65758895      -1.75636868       0.00000000
Si      -0.27466569      -3.66816591       0.89758337       0.00000000
Si      -1.06357410      -1.45600020      -3.39094312       0.00000000
Si      -1.31406543       3.43215380      -1.13766353       0.00000000
