10
Lattice="16.28999089631971 0.0 0.0 0.0 16.28999089631971 0.0 0.0 0.0 34.395419527814205" Properties=species:S:1:pos:R:3:initial_magmoms:R:1 pbc="T T T"
Si       1.35325917       1.35863487       1.38601580       0.00000000
Si      -1.36256076      -1.35593073       1.38629096       0.00000000
Si      -1.35759068       1.44049212      -1.40213694       0.00000000
Si       1.31149161      -1.49868000      -1.46875403       0.00000000
Si       2.71423980       2.70449838      -0.00894625       0.00000000
Si       2.71072116      -2.71137276       0.01638255       0.00000000
Si      -2.72783108       2.70479160       0.03333950       0.00000000
Si      -2.72750705      -2.70829395       0.00499078       0.00000000
Si       2.70961344       0.00065160       2.74721529       0.00000000
Si      -0.00565263      -2.71383255       2.74738726       0.00000000
