10
Lattice="16.28999089631971 0.0 0.0 0.0 16.28999089631971 0.0 0.0 0.0 34.395419527814205" Properties=species:S:1:pos:R:3:initial_magmoms:R:1 pbc="T T T"
Si      -1.35803541       1.35544203      -1.36298805       0.00000000
Si       1.35833905      -1.35909099      -1.36199058       0.00000000
Si       1.33403600       1.38298842       1.36618683       0.00000000
Si      -1.35534756      -1.36197432       1.37640227       0.00000000
Si       2.72450642       0.09099594       2.66912044       0.00000000
Si      -2.71442226       2.71339272      -0.00543448       0.00000000
Si       2.71323374       2.71463076      -0.00244208       0.00000000
Si       0.00053192       2.71355562      -2.71930339       0.00000000
Si      -2.71473177      -0.00166158      -2.71964734       0.00000000
Si       2.71642658      -2.71883358      -0.00147900       0.00000000
