10
Lattice="16.28999089631971 0.0 0.0 0.0 16.28999089631971 0.0 0.0 0.0 34.395419527814205" Properties=species:S:1:pos:R:3:initial_magmoms:R:1 pbc="T T T"
Si       1.77690343      -1.38653964       0.71807357       0.00000000
Si      -2.17590484      -0.44880579       0.86339430       0.00000000
Si       0.40332574       2.25254862       0.71487480       0.00000000
Si      -0.90305311      -0.66054321      -2.36052457       0.00000000
Si      -2.98058197       1.42056945      -0.36325023       0.00000000
Si       3.51392242       0.10635741       0.04007069       0.00000000
Si       1.50764602      -3.38643036      -0.44125908       0.00000000
Si      -1.68914335       3.38410089       0.08953133       0.00000000
Si       1.42484395      -1.68573807       3.07969879       0.00000000
Si       2.90475787       2.36996694       0.65282543       0.00000000
