10
Lattice="16.28999089631971 0.0 0.0 0.0 16.28999089631971 0.0 0.0 0.0 34.395419527814205" Properties=species:S:1:pos:R:3:initial_magmoms:R:1 pbc="T T T"
Si      -0.12715974      -1.96965648      -1.27335354       0.00000000
Si       0.38112084      -0.58327974       2.25579045       0.00000000
Si      -2.24506241       0.81441855       0.00416185       0.00000000
Si       1.98904158       1.33288038      -0.14459842       0.00000000
Si      -2.32472051      -2.59256979      -0.48903435       0.00000000
Si       1.53158580      -3.25527957      -0.17132368       0.00000000
Si      -2.03511263       2.61200376      -1.44877028       0.00000000
Si      -1.00482910       0.89283861       3.42334362       0.00000000
Si       3.56175963      -0.13429476      -1.16796591       0.00000000
Si       1.69259616       3.14986698      -1.56671224       0.00000000
