10
Lattice="16.28999089631971 0.0 0.0 0.0 16.28999089631971 0.0 0.0 0.0 34.395419527814205" Properties=species:S:1:pos:R:3:initial_magmoms:R:1 pbc="T T T"
Si      -0.89557370       1.74395853       1.21508766       0.00000000
Si      -0.30803250       0.87270417      -2.15876092       0.00000000
Si       2.31014191      -0.42575544      -0.15811583       0.00000000
Si      -0.88743359      -1.84072113       1.17460423       0.00000000
Si      -3.25542522       0.80948268       0.85383237       0.00000000
Si      -0.09394932      -3.50166582      -0.34233780       0.00000000
Si       1.07791745      -0.60341418      -3.32631409       0.00000000
Si      -0.23176923       3.73081725       0.12341083       0.00000000
Si       0.49605493      -2.71668330      -2.52851189       0.00000000
Si       0.47940655       3.15797940      -2.04701014       0.00000000
