10
Lattice="16.28999089631971 0.0 0.0 0.0 16.28999089631971 0.0 0.0 0.0 34.395419527814205" Properties=species:S:1:pos:R:3:initial_magmoms:R:1 pbc="T T T"
Si       1.67603216       1.58210109       0.02259780       0.00000000
Si      -0.20994977      -1.79758521       1.45293212       0.00000000
Si      -1.82984366       1.34008056      -0.65571464       0.00000000
Si       0.88643469      -0.64337355      -2.18940726       0.00000000
Si      -1.20603440       0.48817872      -2.81475073       0.00000000
Si       2.03511263      -2.61200376       1.44877028       0.00000000
Si      -1.67878649      -3.29061258       0.32132219       0.00000000
Si       1.41123170       2.89965977       1.92690127       0.00000000
Si       3.72770879       0.53786322      -0.11794196       0.00000000
Si       1.60433987       2.96342860      -1.95001500       0.00000000
