10
Lattice="10.86 0.0 0.0 0.0 10.86 0.0 0.0 0.0 10.86" Properties=species:S:1:pos:R:3:initial_magmoms:R:1 pbc="T T T"
Si       1.35750000       1.35750000       1.35750000       0.00000000
Si      -1.35750000      -1.35750000       1.35750000       0.00000000
Si      -1.35750000       1.35750000      -1.35750000       0.00000000
Si       1.35750000      -1.35750000      -1.35750000       0.00000000
Si       0.02676990      -2.76745380       2.53768878       0.00000000
Si       2.77152630       0.17699628       2.54846190       0.00000000
Si      -2.60579184      -0.04272324       2.74796010       0.00000000
Si       2.76780132      -0.06417174      -2.59493184       0.00000000
Si      -2.45604330       0.03910686      -2.92704150       0.00000000
Si       2.71500000       2.71500000       0.00000000       0.00000000
