10
Lattice="10.86 0.0 0.0 0.0 10.86 0.0 0.0 0.0 10.86" Properties=species:S:1:pos:R:3:initial_magmoms:R:1 pbc="T T T"
Si       1.42503834       1.26799188       1.25325486       0.00000000
Si      -1.28996166       1.26799188      -1.46174514       0.00000000
Si      -1.32355164      -1.41671958       1.37692854       0.00000000
Si       1.42503834      -1.44700812      -1.46174514       0.00000000
Si       0.06753834       2.62549188       2.61075486       0.00000000
Si      -2.64746166       2.62549188      -0.10424514       0.00000000
Si      -2.81192550      -0.10661262       2.48243310       0.00000000
Si      -2.53825350      -2.84723136      -0.07128504       0.00000000
Si       2.78253834       2.62549188      -0.10424514       0.00000000
Si       0.06753834       2.62549188      -2.81924514       0.00000000
