10
Lattice="16.28999089631971 0.0 0.0 0.0 16.28999089631971 0.0 0.0 0.0 34.397273925272025" Properties=species:S:1:pos:R:3:initial_magmoms:R:1 pbc="T T T"
Si      -1.35798327      -1.35604313       1.35745478       0.00000000
Si       1.35755973      -1.35746688      -1.35724839       0.00000000
Si       1.35716877       1.35830907       1.35697321       0.00000000
Si      -1.35814617       1.35785295      -1.35717960       0.00000000
Si       2.70798444       0.00254124       2.71511594       0.00000000
Si       2.71425609       2.71482624      -0.00013759       0.00000000
Si      -2.71565703       0.00058644      -2.71377444       0.00000000
Si      -0.00206883       2.71689507       2.71257054       0.00000000
Si      -2.71448415       2.71505430      -0.00065355       0.00000000
Si       0.00011403      -2.71475187      -2.71490955       0.00000000
