10
Lattice="16.28999089631971 0.0 0.0 0.0 16.28999089631971 0.0 0.0 0.0 34.397273925272025" Properties=species:S:1:pos:R:3:initial_magmoms:R:1 pbc="T T T"
Si       1.02310974      -1.58265821       1.36746439       0.00000000
Si      -2.16663516       0.75243510       0.56187978       0.00000000
Si       1.33626870       1.85407893       0.75663726       0.00000000
Si      -0.54918477      -0.68561352      -2.26120926       0.00000000
Si      -1.95786252       2.50875774      -0.97382177       0.00000000
Si      -0.78071454       1.58814468      -2.83664157       0.00000000
Si       2.87008623      -2.09662726      -0.22131218       0.00000000
Si      -3.42217062      -1.13709087       0.05551723       0.00000000
Si       0.98015301      -0.31561875       3.49504016       0.00000000
Si       0.73339209       2.02145868       3.03903525       0.00000000
