10
Lattice="16.28999089631971 0.0 0.0 0.0 16.28999089631971 0.0 0.0 0.0 34.397273925272025" Properties=species:S:1:pos:R:3:initial_magmoms:R:1 pbc="T T T"
Si      -1.33532388      -1.43290424       1.32332376       0.00000000
Si       1.78893522      -0.79667874      -1.41025462       0.00000000
Si       1.36824597       1.40488218       1.43537294       0.00000000
Si       2.60016093      -2.58691113       0.04850018       0.00000000
Si       2.61706995       2.62733265      -0.21635897       0.00000000
Si       0.74523492      -0.98096751      -3.54443468       0.00000000
Si      -2.22760863      -3.16732076      -0.07790987       0.00000000
Si      -0.00459378      -2.67651935       2.82653019       0.00000000
Si      -2.71075374       0.02073717       2.80638025       0.00000000
Si       2.71621089       0.03200985       2.81628667       0.00000000
