10
Lattice="16.28999089631971 0.0 0.0 0.0 16.28999089631971 0.0 0.0 0.0 34.397273925272025" Properties=species:S:1:pos:R:3:initial_magmoms:R:1 pbc="T T T"
Si      -1.35633798       1.35720135       1.35652605       0.00000000
Si      -1.35751086      -1.35726651      -1.35659484       0.00000000
Si       1.35700587       1.35791811      -1.35807393       0.00000000
Si       1.35814617      -1.35785295       1.35717960       0.00000000
Si      -0.00008145       2.71557558       2.71146982       0.00000000
Si      -2.71311416       0.00141723       2.71494395       0.00000000
Si       0.00016290      -2.71389608       2.71463438       0.00000000
Si      -2.71438967       2.71476108      -0.00041277       0.00000000
Si      -2.71213513      -0.00143352      -2.71731736       0.00000000
Si       2.71531494       0.00045612       2.71415281       0.00000000
