10
Lattice="16.28999089631971 0.0 0.0 0.0 16.28999089631971 0.0 0.0 0.0 34.397273925272025" Properties=species:S:1:pos:R:3:initial_magmoms:R:1 pbc="T T T"
Si      -1.40965515       1.29358890       1.35219199       0.00000000
Si      -1.35923760      -1.34397387      -1.36086011       0.00000000
Si       1.35917244       1.36852290      -1.36068812       0.00000000
Si       1.47230649      -1.28609550       1.36491899       0.00000000
Si       0.53519166       1.94235444       2.47712107       0.00000000
Si       2.46404169       0.39286593       2.73774936       0.00000000
Si      -2.71033020      -0.20548206       2.67648778       0.00000000
Si       0.00000000      -2.70255987      -2.71645743       0.00000000
Si      -2.72033226      -2.70278793       0.00904649       0.00000000
Si       2.71282257       0.01264104      -2.71528792       0.00000000
