10
Lattice="16.28999089631971 0.0 0.0 0.0 16.28999089631971 0.0 0.0 0.0 34.397273925272025" Properties=species:S:1:pos:R:3:initial_magmoms:R:1 pbc="T T T"
Si      -0.19758141      -1.10521134      -1.98004578       0.00000000
Si      -2.08314891      -0.57005226       0.78429268       0.00000000
Si       1.14906402      -1.13129163       1.69489222       0.00000000
Si       0.68885523       2.26253439      -0.11729477       0.00000000
Si      -2.02103514       0.67007286       2.72392164       0.00000000
Si       3.29675391      -0.71154720       0.87018272       0.00000000
Si      -0.02808396      -0.21067857       3.55771203       0.00000000
Si      -0.75829950      -3.27192795      -1.20596910       0.00000000
Si       1.96380837      -1.06777692      -2.80320741       0.00000000
Si       3.35321505       0.19456776      -1.31552448       0.00000000
