10
Lattice="16.28999089631971 0.0 0.0 0.0 16.28999089631971 0.0 0.0 0.0 34.397273925272025" Properties=species:S:1:pos:R:3:initial_magmoms:R:1 pbc="T T T"
Si      -1.40787954      -1.63084077      -0.91923326       0.00000000
Si      -1.19402442       1.95903540      -0.74184642       0.00000000
Si       2.27458899      -0.58529970      -0.61419807       0.00000000
Si      -0.00456120      -1.07792559       2.28318913       0.00000000
Si       0.69133131      -3.18845799       1.35353349       0.00000000
Si      -0.62543826      -1.85432328      -3.09135353       0.00000000
Si      -1.06702758       3.37870890       1.13899757       0.00000000
Si       2.52134991      -2.92237713      -0.15819315       0.00000000
Si      -3.63611045      -0.88583391      -1.10673291       0.00000000
Si       3.80097828       0.55249164       0.89099308       0.00000000
