10
Lattice="16.28999089631971 0.0 0.0 0.0 16.28999089631971 0.0 0.0 0.0 34.397273925272025" Properties=species:S:1:pos:R:3:initial_magmoms:R:1 pbc="T T T"
Si       2.06532765       0.72352035      -0.94427449       0.00000000
Si       0.60095439      -2.35331856       0.42078209       0.00000000
Si      -1.67361831       1.05896403      -1.50212979       0.00000000
Si      -0.59396598       1.48708152       1.92198315       0.00000000
Si       1.48168953       2.97515673      -1.07955905       0.00000000
Si      -0.95788458       3.28403142      -0.78250402       0.00000000
Si       3.58741638       0.69387255       0.81442471       0.00000000
Si      -2.08746576       0.07110585       3.13108240       0.00000000
Si      -0.45598968      -3.85198227      -0.94798940       0.00000000
Si      -3.93489837       0.55503288      -0.54695136       0.00000000
