10
Lattice="16.28999089631971 0.0 0.0 0.0 16.28999089631971 0.0 0.0 0.0 34.397273925272025" Properties=species:S:1:pos:R:3:initial_magmoms:R:1 pbc="T T T"
Si      -1.83847311       1.37699370      -0.42153883       0.00000000
Si       0.96892920       0.27134253       2.13892688       0.00000000
Si       1.79944227       0.66647277      -1.52978522       0.00000000
Si      -1.55701449      -1.94100237      -0.14852751       0.00000000
Si      -2.09468223       0.79832403      -2.84321146       0.00000000
Si       2.24728695      -1.38502467      -2.56307990       0.00000000
Si      -3.27521853       0.96728391       1.46071545       0.00000000
Si       1.33698546       2.60195283       2.57831790       0.00000000
Si      -1.38430791       3.66340923       0.13119128       0.00000000
Si      -1.09928178      -3.38147820       1.67937904       0.00000000
