10
Lattice="16.28999089631971 0.0 0.0 0.0 16.28999089631971 0.0 0.0 0.0 34.397273925272025" Properties=species:S:1:pos:R:3:initial_magmoms:R:1 pbc="T T T"
Si       1.25553546       1.88952597       0.50636255       0.00000000
Si       0.68074281      -0.36374104      -2.19310262       0.00000000
Si      -2.34904243       0.16426836       0.28443122       0.00000000
Si       0.76843188      -1.40253805       1.77620742       0.00000000
Si       0.47309418       2.11300848       2.67848282       0.00000000
Si       3.42217062       1.13709087      -0.05551723       0.00000000
Si      -0.42845958      -3.36930047       1.22970323       0.00000000
Si      -1.34334996      -3.20309360      -1.00116761       0.00000000
Si       2.87298585       0.45147735      -2.31672649       0.00000000
Si       0.29362725      -2.61616490      -2.68106262       0.00000000
