10
Lattice="16.28999089631971 0.0 0.0 0.0 16.28999089631971 0.0 0.0 0.0 34.397273925272025" Properties=species:S:1:pos:R:3:initial_magmoms:R:1 pbc="T T T"
Si      -1.44863712      -1.11852027      -1.51067206       0.00000000
Si       1.27873242      -1.37130849       1.48029095       0.00000000
Si       1.78900038       0.85154346      -1.41810894       0.00000000
Si      -1.42200297       1.35070164       1.45890271       0.00000000
Si      -2.57059621      -2.49948873       0.08421833       0.00000000
Si       2.68128513       2.58595998      -0.01687531       0.00000000
Si       2.58100389      -2.70177795       0.03125338       0.00000000
Si       2.64600099      -0.01210347       2.84692980       0.00000000
Si      -0.07205067       2.70339948       2.84383405       0.00000000
Si      -0.06472017      -2.73057867       2.84682661       0.00000000
