10
Lattice="16.28999089631971 0.0 0.0 0.0 16.28999089631971 0.0 0.0 0.0 34.397273925272025" Properties=species:S:1:pos:R:3:initial_magmoms:R:1 pbc="T T T"
Si       1.35425286      -1.35128808       1.36096330       0.00000000
Si      -1.35399222       1.35435060       1.36116968       0.00000000
Si       1.35773892       1.35736425      -1.35714520       0.00000000
Si      -1.35710361      -1.35775521      -1.35824591       0.00000000
Si      -2.71346277      -2.71559187       0.00178866       0.00000000
Si       0.00074934       2.71430496      -2.71545991       0.00000000
Si       2.71474479       2.71513575      -0.00072234       0.00000000
Si      -2.71445809      -0.00053757      -2.71545991       0.00000000
Si      -2.71561468       2.71484253      -0.00034397       0.00000000
Si       0.00060273      -2.71539639      -2.71542551       0.00000000
