10
Lattice="16.28999089631971 0.0 0.0 0.0 16.28999089631971 0.0 0.0 0.0 34.397273925272025" Properties=species:S:1:pos:R:3:initial_magmoms:R:1 pbc="T T T"
Si       0.71573373       2.22506739       0.71962577       0.00000000
Si       1.67361831      -1.05896403       1.50212979       0.00000000
Si      -2.26128006      -0.50393115       0.95517843       0.00000000
Si       0.56350368       1.02874608      -2.28494339       0.00000000
Si       1.07965233       0.42811749       3.42411294       0.00000000
Si       1.86111621       2.83564917      -1.37396548       0.00000000
Si       3.15530784       1.91619270       0.42257075       0.00000000
Si      -3.19200921       1.68907752       1.11182371       0.00000000
Si       3.73894596      -0.33544368       0.55785530       0.00000000
Si       0.14146236       2.64272670       2.87936301       0.00000000
