10
Lattice="16.28999089631971 0.0 0.0 0.0 16.28999089631971 0.0 0.0 0.0 34.397273925272025" Properties=species:S:1:pos:R:3:initial_magmoms:R:1 pbc="T T T"
Si       0.00259011      -1.60003638      -1.70025820       0.00000000
Si       1.45800387       1.77137853      -0.47440747       0.00000000
Si      -2.21884461       0.81440782      -0.01014720       0.00000000
Si       0.54621999      -0.96084936       2.22904779       0.00000000
Si      -1.78116489      -2.83786461      -0.87265933       0.00000000
Si      -3.41573607      -1.15235460      -0.55665140       0.00000000
Si       2.17693044      -2.50338204      -1.61405858       0.00000000
Si       1.41504714       3.03841799       1.65316831       0.00000000
Si      -2.37731373       2.18565278       1.93787470       0.00000000
Si       0.43489413       3.35403674      -1.84187186       0.00000000
