10
Lattice="16.28999089631971 0.0 0.0 0.0 16.28999089631971 0.0 0.0 0.0 34.397273925272025" Properties=species:S:1:pos:R:3:initial_magmoms:R:1 pbc="T T T"
Si      -1.34244261      -1.36731689      -1.37864351       0.00000000
Si       1.36601424       1.35151940      -1.37300235       0.00000000
Si       1.41371136      -1.18566602       1.53573595       0.00000000
Si      -1.38820122       1.34062139       1.45208173       0.00000000
Si       2.13444612       0.84387413       2.64129935       0.00000000
Si       0.41544387       2.52247718       2.51843222       0.00000000
Si      -2.02530312      -0.24484684       3.06882330       0.00000000
Si      -2.69529453       2.70367085      -0.01320856       0.00000000
Si      -2.71099809      -2.69868678       0.00048156       0.00000000
Si      -2.70225036      -0.00638242      -2.73245217       0.00000000
