10
Lattice="16.28999089631971 0.0 0.0 0.0 16.28999089631971 0.0 0.0 0.0 34.397273925272025" Properties=species:S:1:pos:R:3:initial_magmoms:R:1 pbc="T T T"
Si      -1.25121861       1.42149798       1.35969060       0.00000000
Si       1.35273789       1.35570267      -1.35845230       0.00000000
Si      -1.37270943      -1.35073422      -1.36354310       0.00000000
Si       1.30709331      -1.36304946       1.46529029       0.00000000
Si      -2.20496553      -0.17539443       2.85583526       0.00000000
Si       2.69529453      -2.70367085       0.01320856       0.00000000
Si      -2.72293866      -2.69413794       0.01155749       0.00000000
Si      -0.00695583      -2.71005327      -2.71924361       0.00000000
Si       2.70791928       0.00423540      -2.72185781       0.00000000
Si      -2.72352510       2.70759348      -0.00522839       0.00000000
