10
Lattice="16.28999089631971 0.0 0.0 0.0 16.28999089631971 0.0 0.0 0.0 34.397273925272025" Properties=species:S:1:pos:R:3:initial_magmoms:R:1 pbc="T T T"
Si       1.44536283       1.88590959      -0.32914770       0.00000000
Si       0.77424741      -1.95016387      -1.16644661       0.00000000
Si      -2.22650091       0.80399295      -0.63088075       0.00000000
Si      -0.22019193      -0.85788679       2.29653528       0.00000000
Si      -0.11280825      -3.77453051      -0.01203905       0.00000000
Si      -3.51837936       0.51979761       1.32618764       0.00000000
Si       1.01349864       3.36724074       1.46556547       0.00000000
Si       3.62669157       1.17278226       0.05892256       0.00000000
Si       0.25700733      -3.21127118       2.20723990       0.00000000
Si      -2.11157496       3.22372584      -0.92332654       0.00000000
