10
Lattice="16.28999089631971 0.0 0.0 0.0 16.28999089631971 0.0 0.0 0.0 34.397273925272025" Properties=species:S:1:pos:R:3:initial_magmoms:R:1 pbc="T T T"
Si       1.49423283       1.03396540       1.48482795       0.00000000
Si       0.47719926      -2.35338439      -0.08929537       0.00000000
Si      -2.07469440       0.79425805       0.94245143       0.00000000
Si       0.22019193       0.85788679      -2.29653528       0.00000000
Si       0.69908535       3.27318880       1.24105434       0.00000000
Si      -3.29818743       1.37768440      -0.97034764       0.00000000
Si       0.10738368      -2.91664372      -2.30857433       0.00000000
Si      -1.56209697       2.98933555       1.66661765       0.00000000
Si       0.99443934      -1.09227708      -3.46298188       0.00000000
Si      -2.00630898       1.66187974      -2.92741603       0.00000000
