10
Lattice="16.28999089631971 0.0 0.0 0.0 16.28999089631971 0.0 0.0 0.0 34.397273925272025" Properties=species:S:1:pos:R:3:initial_magmoms:R:1 pbc="T T T"
Si       1.45761291       1.26725449       1.42466709       0.00000000
Si       0.64703880       1.35842962      -1.94747155       0.00000000
Si      -1.84697649       0.51396905       1.58877657       0.00000000
Si      -0.14605614      -2.25033385      -1.10184849       0.00000000
Si      -2.87008623       2.09662726       0.22131218       0.00000000
Si       0.74860695       3.49939174       1.07797677       0.00000000
Si       1.15963623       3.55350712      -1.22330533       0.00000000
Si      -1.12804992      -3.76079152       0.44912546       0.00000000
Si      -1.74653235      -2.01153874      -2.97904637       0.00000000
Si       2.72173320       0.56417157      -2.88992298       0.00000000
