10
Lattice="16.28999089631971 0.0 0.0 0.0 16.28999089631971 0.0 0.0 0.0 34.397273925272025" Properties=species:S:1:pos:R:3:initial_magmoms:R:1 pbc="T T T"
Si      -1.04370030      -0.18428877      -2.13418005       0.00000000
Si      -1.78893522       0.79667874       1.41025462       0.00000000
Si       1.68883317       1.71326817      -0.24184737       0.00000000
Si       0.81122571      -1.79023239       1.45875481       0.00000000
Si       0.86530851       0.02191005      -3.45586165       0.00000000
Si      -1.51490484      -2.49882803      -2.05630458       0.00000000
Si      -0.42068925       2.20156092       2.84562756       0.00000000
Si       2.30076702      -0.53758629       2.77655780       0.00000000
Si       0.82813473       3.42401139       1.19389565       0.00000000
Si       3.47581359       0.85372632       1.12843760       0.00000000
