10
Lattice="16.28999089631971 0.0 0.0 0.0 16.28999089631971 0.0 0.0 0.0 34.397273925272025" Properties=species:S:1:pos:R:3:initial_magmoms:R:1 pbc="T T T"
Si       1.36303317      -1.39416336       1.29034566       0.00000000
Si      -1.08621720       1.46443842       1.57467368       0.00000000
Si       2.09393289       0.60763329      -1.19719779       0.00000000
Si      -0.95123826      -0.60359337      -2.34018544       0.00000000
Si      -1.49550345       1.64258586      -2.10621505       0.00000000
Si       1.30134294      -0.70214787      -2.99349323       0.00000000
Si      -2.14179291       2.75643090      -0.20246247       0.00000000
Si       1.77311763       2.91538872      -1.69585535       0.00000000
Si       2.22373161      -3.10490658      -0.14539736       0.00000000
Si      -2.56446954       0.07612317       2.85451926       0.00000000
