10
Lattice="16.28999089631971 0.0 0.0 0.0 16.28999089631971 0.0 0.0 0.0 34.397273925272025" Properties=species:S:1:pos:R:3:initial_magmoms:R:1 pbc="T T T"
Si      -1.36303317       1.39416336      -1.29034566       0.00000000
Si       0.86069844      -1.71074322      -1.43574302       0.00000000
Si      -1.24882398      -1.22245047       1.65173191       0.00000000
Si       1.37774304       1.45785726       1.52750265       0.00000000
Si       0.73089972       2.00179665      -2.48754345       0.00000000
Si       2.64767886      -2.57028507      -0.06545805       0.00000000
Si      -2.61706995      -2.62733265       0.21635897       0.00000000
Si      -0.82813473      -3.42401139      -1.19389565       0.00000000
Si      -2.44925037       2.85860178       0.28432803       0.00000000
Si       0.09914094      -2.59532280       3.03264565       0.00000000
