10
Lattice="16.28999089631971 0.0 0.0 0.0 16.28999089631971 0.0 0.0 0.0 34.397273925272025" Properties=species:S:1:pos:R:3:initial_magmoms:R:1 pbc="T T T"
Si       1.33154460       1.35011520      -1.37403427       0.00000000
Si      -1.30636026       1.42755786       1.36935624       0.00000000
Si      -1.38350970      -1.36524861      -1.36932184       0.00000000
Si       1.45341009      -1.30979745       1.50071950       0.00000000
Si      -2.29576599      -0.53054901       2.46429088       0.00000000
Si      -0.46170747      -2.23228386       2.67511189       0.00000000
Si       2.69610903       2.71225242       0.02975366       0.00000000
Si       2.68988625      -2.72751615       0.00337093       0.00000000
Si       2.69066817      -0.00503361      -2.73269295       0.00000000
Si      -0.02427210       2.70946683      -2.73252097       0.00000000
