10
Lattice="16.28999089631971 0.0 0.0 0.0 16.28999089631971 0.0 0.0 0.0 34.397273925272025" Properties=species:S:1:pos:R:3:initial_magmoms:R:1 pbc="T T T"
Si      -1.35278676       1.35835794       1.36079131       0.00000000
Si       1.36158336      -1.35826020       1.36041294       0.00000000
Si      -1.35571896      -1.35873261      -1.37807251       0.00000000
Si       1.36252818       1.37132478      -1.36159965       0.00000000
Si       0.14423166      -2.65895154      -2.72011730       0.00000000
Si      -2.71125873       2.71625976       0.00264859       0.00000000
Si      -2.71301805      -2.71557558       0.00323335       0.00000000
Si      -2.71101438      -0.00047241       2.71800531       0.00000000
Si       2.71697652       2.71490769       0.00295817       0.00000000
Si       0.00343719       2.71489140       2.71800531       0.00000000
