10
Lattice="16.28999089631971 0.0 0.0 0.0 16.28999089631971 0.0 0.0 0.0 34.397273925272025" Properties=species:S:1:pos:R:3:initial_magmoms:R:1 pbc="T T T"
Si      -1.55696562      -1.11944880      -1.31641453       0.00000000
Si       1.25742510       1.41546760      -1.38254214       0.00000000
Si      -1.34732961       1.32585939       1.39548786       0.00000000
Si       1.36044306      -1.37352393       1.39183831       0.00000000
Si       0.15170877      -2.42312121      -2.70577161       0.00000000
Si      -2.67805971       2.56947450      -0.10771856       0.00000000
Si       2.65981491      -0.08000019      -2.59232934       0.00000000
Si       2.74696641       2.66811371      -0.06473915       0.00000000
Si      -0.00030951       2.68618583       2.75560499       0.00000000
Si      -2.71334385      -0.02858895       2.75608655       0.00000000
