10
Lattice="16.28999089631971 0.0 0.0 0.0 16.28999089631971 0.0 0.0 0.0 34.397273925272025" Properties=species:S:1:pos:R:3:initial_magmoms:R:1 pbc="T T T"
Si       1.35622395       1.35653346       1.35721400       0.00000000
Si       1.35278676      -1.35835794      -1.36079131       0.00000000
Si      -1.35822762      -1.35883035       1.35721400       0.00000000
Si      -1.35847197       1.35790182      -1.35814272       0.00000000
Si      -0.00076563       2.71377462       2.71494395       0.00000000
Si       2.71435383      -0.00061902       2.71473757       0.00000000
Si      -2.71549413       2.71404443      -0.00034397       0.00000000
Si       2.71482624       2.71553738       0.00044716       0.00000000
Si      -2.71502172      -2.71572219       0.00065355       0.00000000
Si      -0.00092853      -2.71588509       2.71494395       0.00000000
