10
Lattice="16.28999089631971 0.0 0.0 0.0 16.28999089631971 0.0 0.0 0.0 34.397273925272025" Properties=species:S:1:pos:R:3:initial_magmoms:R:1 pbc="T T T"
Si      -1.98716823      -0.82899810       0.87606466       0.00000000
Si       1.00408302      -0.03720636       2.17552560       0.00000000
Si      -0.39348495       2.46360186      -0.22200013       0.00000000
Si       0.20672010       1.90322586      -2.44619790       0.00000000
Si      -2.40829731       1.19223252       2.10370405       0.00000000
Si      -0.27321588       1.76018337       2.96662894       0.00000000
Si      -3.50925696      -0.79935030      -0.88263454       0.00000000
Si       3.29307237      -0.14387328       1.73269485       0.00000000
Si       3.43575648       1.48522446       0.05407254       0.00000000
Si      -2.22656607      -1.32098868      -2.80705990       0.00000000
