10
Lattice="16.28999089631971 0.0 0.0 0.0 16.28999089631971 0.0 0.0 0.0 34.397273925272025" Properties=species:S:1:pos:R:3:initial_magmoms:R:1 pbc="T T T"
Si       1.32095610      -0.80093043       1.80197100       0.00000000
Si       1.28697516       1.56946005      -1.26196789       0.00000000
Si      -2.05801344       1.10833902       0.61540197       0.00000000
Si      -0.27924318      -2.06966079      -1.21800815       0.00000000
Si       0.91715958       1.00620072      -3.48124685       0.00000000
Si      -3.04000722      -0.40211865       2.16637592       0.00000000
Si       2.97465174      -2.19146112       0.86412880       0.00000000
Si       1.69588674      -2.30914008      -2.58715801       0.00000000
Si       2.88368838       0.84769902       2.44798656       0.00000000
Si       3.41487270      -1.36906047      -1.26110796       0.00000000
