10
Lattice="16.28999089631971 0.0 0.0 0.0 16.28999089631971 0.0 0.0 0.0 34.397273925272025" Properties=species:S:1:pos:R:3:initial_magmoms:R:1 pbc="T T T"
Si      -0.47933325      -1.72341684      -1.50629186       0.00000000
Si       1.30276017      -1.43555625       1.39810509       0.00000000
Si       1.68671547       0.87057018      -1.50574151       0.00000000
Si      -1.70867439       1.30367241       1.38935707       0.00000000
Si       2.50810614       2.34312102       0.11344227       0.00000000
Si      -0.15170877       2.42312121       2.70577161       0.00000000
Si       2.97774684      -2.30876541      -0.08723154       0.00000000
Si       1.53270981      -2.92760622      -1.92783069       0.00000000
Si      -1.11021237      -0.89461422      -3.57810963       0.00000000
Si       2.67335190      -0.21859551       2.78784699       0.00000000
