10
Lattice="16.28999089631971 0.0 0.0 0.0 16.28999089631971 0.0 0.0 0.0 34.397273925272025" Properties=species:S:1:pos:R:3:initial_magmoms:R:1 pbc="T T T"
Si      -1.34089506       1.29699351      -1.38559176       0.00000000
Si      -1.93290624      -0.58854141       1.26926012       0.00000000
Si       0.91962004       1.53173241       1.60704154       0.00000000
Si       1.37730388      -1.44266032      -1.36371508       0.00000000
Si      -0.98702739       0.56246112       3.18986738       0.00000000
Si       2.56164227       2.47795335       0.02373413       0.00000000
Si      -2.65364100      -2.61808156       0.16369672       0.00000000
Si       0.01221105       2.63366946      -2.75071714       0.00000000
Si      -2.49188130       2.88536625       0.10900502       0.00000000
Si      -2.70133812      -0.08089614      -2.74504158       0.00000000
