10
Lattice="16.28999089631971 0.0 0.0 0.0 16.28999089631971 0.0 0.0 0.0 34.397273925272025" Properties=species:S:1:pos:R:3:initial_magmoms:R:1 pbc="T T T"
Si       1.35625653       1.35837423       1.35494377       0.00000000
Si       1.35633798      -1.35720135      -1.35652605       0.00000000
Si      -1.35677618      -1.35578412       1.35841790       0.00000000
Si      -1.35805169       1.35755973      -1.35693882       0.00000000
Si       0.00741195       2.70614367       2.71291451       0.00000000
Si       2.71241532       0.00184077       2.71322409       0.00000000
Si      -0.00117288      -2.71446786      -2.71312089       0.00000000
Si       2.71334385       0.00071676      -2.71459998       0.00000000
Si       2.71414206       2.71406061       0.00006879       0.00000000
Si      -2.71520547      -0.00026064      -2.71353366       0.00000000
