10
Lattice="16.28999089631971 0.0 0.0 0.0 16.28999089631971 0.0 0.0 0.0 34.397273925272025" Properties=species:S:1:pos:R:3:initial_magmoms:R:1 pbc="T T T"
Si      -1.44241434       1.84428603      -0.19489506       0.00000000
Si       1.34864910       0.21720174      -1.94585487       0.00000000
Si       1.29940443      -0.40080895       1.95455739       0.00000000
Si      -1.83572010      -1.63668238       0.08189995       0.00000000
Si      -0.91549800      -2.93587504       1.89075041       0.00000000
Si      -1.72594179       2.04833457      -2.51654036       0.00000000
Si       0.53353008       2.09818197      -3.09173190       0.00000000
Si      -0.09410733      -1.46332420       3.50993419       0.00000000
Si      -3.35142315       1.63808721       1.12678653       0.00000000
Si      -0.49720338       3.86984979       0.54564426       0.00000000
