10
Lattice="16.28999089631971 0.0 0.0 0.0 16.28999089631971 0.0 0.0 0.0 34.397273925272025" Properties=species:S:1:pos:R:3:initial_magmoms:R:1 pbc="T T T"
Si       1.34089506      -1.29699351       1.38559176       0.00000000
Si       1.35310611       1.33667595      -1.36512537       0.00000000
Si      -1.36044306      -1.37788965      -1.35944982       0.00000000
Si      -1.15098624       1.58837274       1.49459678       0.00000000
Si      -0.59201118      -1.88553492       2.65485188       0.00000000
Si      -2.31101343      -0.20693187       2.53198475       0.00000000
Si       2.26051510       0.23473890       2.99263330       0.00000000
Si      -2.70352098       2.70177795       0.02129192       0.00000000
Si       2.72536980       2.68622100      -0.00942486       0.00000000
Si       0.00140094       2.69260668      -2.72020674       0.00000000
