10
Lattice="16.28999089631971 0.0 0.0 0.0 16.28999089631971 0.0 0.0 0.0 34.397273925272025" Properties=species:S:1:pos:R:3:initial_magmoms:R:1 pbc="T T T"
Si       1.34361549       1.34858394      -1.38084494       0.00000000
Si      -1.36549296      -1.37181348      -1.37940025       0.00000000
Si      -1.32893820       1.41362991       1.38954745       0.00000000
Si       1.55253474      -1.11340521       1.47330486       0.00000000
Si       2.70334179       2.70068652      -0.00770499       0.00000000
Si       2.70352098      -2.70177795      -0.02129192       0.00000000
Si      -2.71603170       2.69443116      -0.03742425       0.00000000
Si      -2.71823085      -2.72751615      -0.02094795       0.00000000
Si       2.70492192      -0.00917127      -2.74149866       0.00000000
Si      -0.01177767       2.70837540      -2.74187703       0.00000000
