10
Lattice="16.28999089631971 0.0 0.0 0.0 16.28999089631971 0.0 0.0 0.0 34.397273925272025" Properties=species:S:1:pos:R:3:initial_magmoms:R:1 pbc="T T T"
Si      -0.25409142       2.31213744      -0.10986495       0.00000000
Si       1.39423245      -0.76486437      -1.76423717       0.00000000
Si      -2.13237729      -0.72734850      -0.77483343       0.00000000
Si       1.21730822      -0.35570844       2.15127551       0.00000000
Si      -2.66698251      -1.67928723       1.29719072       0.00000000
Si       3.31917614      -1.27063629      -0.57986957       0.00000000
Si       3.38128991      -0.03051117       1.35975940       0.00000000
Si       0.48081564      -2.92180698      -2.18147633       0.00000000
Si       1.97816705       3.14225955      -0.31043557       0.00000000
Si      -1.70051310      -2.20867965      -2.56954659       0.00000000
