10
Lattice="16.28999089631971 0.0 0.0 0.0 16.28999089631971 0.0 0.0 0.0 34.397273925272025" Properties=species:S:1:pos:R:3:initial_magmoms:R:1 pbc="T T T"
Si      -2.10269691      -0.91261467      -0.50409233       0.00000000
Si       0.52747902      -0.70418412       2.18340258       0.00000000
Si       1.40968351      -0.91505817      -1.67342831       0.00000000
Si       0.11917764       2.18349531      -0.95624475       0.00000000
Si       2.53077272       0.50264424       2.35652416       0.00000000
Si       0.89065968      -2.97619929       1.80967599       0.00000000
Si       0.19908009      -0.19877058      -3.63679141       0.00000000
Si       0.94881987       1.97703585      -3.21793557       0.00000000
Si       1.32944712      -3.22559919      -1.75075343       0.00000000
Si       1.23426302       3.71602593       0.42828070       0.00000000
