10
Lattice="16.28999089631971 0.0 0.0 0.0 16.28999089631971 0.0 0.0 0.0 34.397273925272025" Properties=species:S:1:pos:R:3:initial_magmoms:R:1 pbc="T T T"
Si      -1.35310611      -1.33667595       1.36512537       0.00000000
Si      -1.35170517       1.35593073      -1.35508136       0.00000000
Si       1.36317875      -1.35641943      -1.35542534       0.00000000
Si       1.37226369       1.34954505       1.35570051       0.00000000
Si       2.54943121      -0.15571611       2.77445127       0.00000000
Si      -0.01221105      -2.63366946       2.75071714       0.00000000
Si      -2.50409235       0.25169679       2.85972216       0.00000000
Si      -2.71073100      -0.00053757      -2.71315529       0.00000000
Si      -2.71301160       2.71368594       0.00557236       0.00000000
Si       0.00376531       2.71417464      -2.71312089       0.00000000
