10
Lattice="16.28999089631971 0.0 0.0 0.0 16.28999089631971 0.0 0.0 0.0 34.397273925272025" Properties=species:S:1:pos:R:3:initial_magmoms:R:1 pbc="T T T"
Si       1.35474156      -1.35470898       1.35772996       0.00000000
Si      -1.35987291       1.35837423       1.35724839       0.00000000
Si       1.36216980       1.35190710      -1.36344679       0.00000000
Si      -1.34516304      -1.37319813      -1.36073628       0.00000000
Si      -2.57722461       0.05768289      -2.72328185       0.00000000
Si       2.71295289       2.71278999      -0.00237341       0.00000000
Si       2.71199178       0.00177561       2.71490955       0.00000000
Si       2.71322982      -2.71453302      -0.00326774       0.00000000
Si      -0.00288333      -2.71347417       2.71470317       0.00000000
Si      -0.00234576       2.71585251       2.71477196       0.00000000
