10
Lattice="16.28999089631971 0.0 0.0 0.0 16.28999089631971 0.0 0.0 0.0 34.397273925272025" Properties=species:S:1:pos:R:3:initial_magmoms:R:1 pbc="T T T"
Si      -1.35972630      -1.35210258      -1.37313994       0.00000000
Si       1.35133695       1.37209041      -1.37578853       0.00000000
Si      -1.23647616       1.41771870       1.49734857       0.00000000
Si       1.70417902      -1.09162548       1.32436458       0.00000000
Si       0.53458893       2.31034554       2.94853597       0.00000000
Si       3.49499411       0.82233549       1.27386935       0.00000000
Si      -2.70334179      -2.70068652       0.00770499       0.00000000
Si      -2.68988625       2.72751615      -0.00337093       0.00000000
Si       2.71249581       2.71063971      -0.00223582       0.00000000
Si       2.72554899      -2.71624347      -0.02301179       0.00000000
