10
Lattice="16.28999089631971 0.0 0.0 0.0 16.28999089631971 0.0 0.0 0.0 34.397273925272025" Properties=species:S:1:pos:R:3:initial_magmoms:R:1 pbc="T T T"
Si      -0.41809914       1.07709480       2.04189212       0.00000000
Si      -1.53184644      -1.29541338      -1.26227747       0.00000000
Si       1.30067505       1.49907096      -1.32429579       0.00000000
Si       1.83176163      -1.23530328       1.42635255       0.00000000
Si       2.06576748       1.06919415       1.72361396       0.00000000
Si      -1.53536508      -0.89208927       3.00986634       0.00000000
Si      -0.01000206      -2.49730587      -2.66744129       0.00000000
Si       2.71033020       0.20548206      -2.67648778       0.00000000
Si      -2.70901397       0.20984778      -2.68102822       0.00000000
Si       3.24552186       2.14783650      -0.19936671       0.00000000
