10
Lattice="16.28999089631971 0.0 0.0 0.0 16.28999089631971 0.0 0.0 0.0 34.397273925272025" Properties=species:S:1:pos:R:3:initial_magmoms:R:1 pbc="T T T"
Si       1.34909540       1.35138582      -1.39986664       0.00000000
Si      -1.36456443      -1.36213722      -1.40378793       0.00000000
Si       1.42083109      -1.40445864       1.49810531       0.00000000
Si      -1.31878953       1.53268279       1.50931883       0.00000000
Si      -2.55858885      -0.01858689       2.79539922       0.00000000
Si       2.52684031       0.19802124       2.82615040       0.00000000
Si      -2.69610903      -2.71225242      -0.02975366       0.00000000
Si       2.71215535       2.70810403      -0.01809298       0.00000000
Si       2.70627303      -2.72912886      -0.02861855       0.00000000
Si      -2.73250089       2.71834881      -0.02641712       0.00000000
