10
Lattice="16.28999089631971 0.0 0.0 0.0 16.28999089631971 0.0 0.0 0.0 34.397273925272025" Properties=species:S:1:pos:R:3:initial_magmoms:R:1 pbc="T T T"
Si      -0.36981558      -0.56325933      -2.21927896       0.00000000
Si       2.30392728      -0.58505535      -0.03511964       0.00000000
Si      -1.28697516      -1.56946005       1.26196789       0.00000000
Si      -0.47719926       2.35338439       0.08929537       0.00000000
Si       2.12789754      -2.93852052       0.00085993       0.00000000
Si       0.51724008       1.26110731      -3.37368651       0.00000000
Si       3.12148980       0.10901268       2.01461506       0.00000000
Si      -3.34498860      -0.46112103       1.87736986       0.00000000
Si       1.01703357       3.38734979       1.57412333       0.00000000
Si       0.03398094      -2.37039048       3.06393889       0.00000000
