10
Lattice="16.28999089631971 0.0 0.0 0.0 16.28999089631971 0.0 0.0 0.0 34.397273925272025" Properties=species:S:1:pos:R:3:initial_magmoms:R:1 pbc="T T T"
Si       0.81005283      -1.40302512      -1.67115809       0.00000000
Si      -1.28461311       1.47106845      -1.27868498       0.00000000
Si       1.57728318       1.51557273       0.84359361       0.00000000
Si      -0.94866444      -1.69194456       1.43677493       0.00000000
Si      -2.84734539      -0.17756100      -1.92470054       0.00000000
Si      -1.19364975      -1.56809169      -2.86254274       0.00000000
Si       0.95206905      -3.08130237       1.55290020       0.00000000
Si       1.73221574       0.82575639       3.11904335       0.00000000
Si      -1.54805499       3.41816395      -0.01406849       0.00000000
Si       0.24016347       2.30184216      -2.97402436       0.00000000
