10
Lattice="16.28999089631971 0.0 0.0 0.0 16.28999089631971 0.0 0.0 0.0 34.397273925272025" Properties=species:S:1:pos:R:3:initial_magmoms:R:1 pbc="T T T"
Si       0.41809914      -1.07709480      -2.04189212       0.00000000
Si      -1.11726594      -1.96918407       0.96797423       0.00000000
Si       2.48386662      -0.00790065      -0.31827815       0.00000000
Si       2.24986077      -2.31239808      -0.61553956       0.00000000
Si       0.05633082       1.69046217       2.84180117       0.00000000
Si      -2.88465763      -0.63345294       2.18993807       0.00000000
Si       1.71877419       0.42197616      -3.36618790       0.00000000
Si       0.41466195      -3.09953088       2.44293016       0.00000000
Si       3.54081069       1.49076306       1.05049333       0.00000000
Si      -2.42272048       2.91877704      -1.29567724       0.00000000
