10
Lattice="16.28999089631971 0.0 0.0 0.0 16.28999089631971 0.0 0.0 0.0 34.397273925272025" Properties=species:S:1:pos:R:3:initial_magmoms:R:1 pbc="T T T"
Si      -0.51119160      -1.42514694       1.83296296       0.00000000
Si      -1.76505312       0.08772165      -1.63817109       0.00000000
Si       0.46925626       2.26743768       0.92855493       0.00000000
Si       1.76739169      -1.33573113      -1.22196384       0.00000000
Si       2.88465763       0.63345294      -2.18993807       0.00000000
Si      -1.53683022       3.46359609       0.11186000       0.00000000
Si       2.94098846       2.32391511       0.65186310       0.00000000
Si       1.41375208      -1.93091886       3.01733055       0.00000000
Si      -2.89626330       2.20493295      -1.39529180       0.00000000
Si      -3.18485694      -1.93486104      -1.25250864       0.00000000
