10
Lattice="16.28999089631971 0.0 0.0 0.0 16.28999089631971 0.0 0.0 0.0 34.397273925272025" Properties=species:S:1:pos:R:3:initial_magmoms:R:1 pbc="T T T"
Si      -0.69038649      -1.89584649      -1.21036758       0.00000000
Si       1.11234636       1.62574200      -1.36555675       0.00000000
Si       1.40035356      -1.28907657       1.47112407       0.00000000
Si      -1.32092352       1.42073235       1.47000616       0.00000000
Si      -1.81697031      -1.04993937      -3.07276321       0.00000000
Si      -2.55203212      -2.72311785       0.03481006       0.00000000
Si      -0.58287249       2.56707594      -2.76205246       0.00000000
Si       2.80556154      -2.66014071       0.01238990       0.00000000
Si       2.68038918       2.81158884       0.03602772       0.00000000
Si       0.02837718      -2.64313395       2.85256408       0.00000000
