10
Lattice="16.28999089631971 0.0 0.0 0.0 16.28999089631971 0.0 0.0 0.0 34.397273925272025" Properties=species:S:1:pos:R:3:initial_magmoms:R:1 pbc="T T T"
Si       0.55762951      -0.89466309       2.08678058       0.00000000
Si      -1.10600922      -1.60247988      -1.32804509       0.00000000
Si       1.58500723       1.21625785      -1.34992177       0.00000000
Si      -1.85639278      -0.63460953       2.46951926       0.00000000
Si      -2.52684031      -0.19802124      -2.82615040       0.00000000
Si       0.18531504       2.51008279      -2.84424338       0.00000000
Si      -1.99847416      -3.32744427       0.09600285       0.00000000
Si       2.64431335       2.88095885       0.02552279       0.00000000
Si       1.48835866      -3.08767176       1.93013531       0.00000000
Si       2.90109262      -0.20729025      -2.83423376       0.00000000
