10
Lattice="16.28999089631971 0.0 0.0 0.0 16.28999089631971 0.0 0.0 0.0 34.397273925272025" Properties=species:S:1:pos:R:3:initial_magmoms:R:1 pbc="T T T"
Si      -0.55762951       0.89466309      -2.08678058       0.00000000
Si       0.93072915      -2.19300867      -0.15664527       0.00000000
Si       0.99592173       1.23802371       1.80031993       0.00000000
Si      -2.41402229       0.26005356       0.38273868       0.00000000
Si       0.77911812      -2.59428024       2.24569608       0.00000000
Si      -2.55670640      -1.36904418       2.06136098       0.00000000
Si       0.39685698       3.50591655       1.34139124       0.00000000
Si       3.19200921      -1.68907752      -1.11182371       0.00000000
Si      -0.68698514      -1.27071774       3.49700081       0.00000000
Si      -1.66363873      -0.70781679      -3.41482567       0.00000000
