10
Lattice="10.86 0.0 0.0 0.0 10.86 0.0 0.0 0.0 10.86" Properties=species:S:1:pos:R:3:initial_magmoms:R:1 pbc="T T T"
Si       1.21649376       1.27002270      -1.38357486       0.00000000
Si      -1.49850624       1.27002270       1.33142514       0.00000000
Si      -1.49850624      -1.44497730      -1.38357486       0.00000000
Si       2.57399376       2.62752270      -0.02607486       0.00000000
Si       2.54505186      -0.00495216       2.66192718       0.00000000
Si       2.57399376      -0.08747730      -2.74107486       0.00000000
Si      -0.14100624       2.62752270       2.68892514       0.00000000
Si       2.60764890      -2.76188262       0.00607074       0.00000000
Si      -0.14100624       2.62752270      -2.74107486       0.00000000
Si      -2.85600624       2.62752270      -0.02607486       0.00000000
