10
Lattice="16.28999089631971 0.0 0.0 0.0 16.28999089631971 0.0 0.0 0.0 34.71893929493243" Properties=species:S:1:pos:R:3:initial_magmoms:R:1 pbc="T T T"
Si      -0.57863709      -2.11532396       0.65955606       0.00000000
Si       2.07933705      -0.52864308      -1.00827328       0.00000000
Si      -0.38206566       1.09581690       2.10334396       0.00000000
Si      -2.91263571      -1.53992858       0.39322693       0.00000000
Si      -2.64974769       1.93240614       1.64696324       0.00000000
Si       0.21216096      -3.67851236      -0.97719981       0.00000000
Si       3.77846550      -0.23743001       0.55800310       0.00000000
Si       0.15017751      -2.50584413       2.89885946       0.00000000
Si      -0.92624940      -2.35644854      -3.00416206       0.00000000
Si      -2.74763430      -0.40061020      -2.86691801       0.00000000
