10
Lattice="16.28999089631971 0.0 0.0 0.0 16.28999089631971 0.0 0.0 0.0 34.71893929493243" Properties=species:S:1:pos:R:3:initial_magmoms:R:1 pbc="T T T"
Si      -0.95910796       1.53209079      -1.49364432       0.00000000
Si       1.40473557       1.45409427       1.24561208       0.00000000
Si      -1.45768459      -0.89419068       1.66276037       0.00000000
Si       1.24069527      -1.88288617      -0.83013030       0.00000000
Si       2.98991547      -0.27766305       1.70890187       0.00000000
Si      -2.24317277      -2.10709847      -1.74695384       0.00000000
Si      -0.26046895      -0.51520383       3.66219048       0.00000000
Si       1.55090574      -1.41994391      -3.08293938       0.00000000
Si      -0.22137784      -3.71995901      -0.47085852       0.00000000
Si      -2.58034319       2.76379398      -0.28941724       0.00000000
