10
Lattice="16.28999089631971 0.0 0.0 0.0 16.28999089631971 0.0 0.0 0.0 34.71893929493243" Properties=species:S:1:pos:R:3:initial_magmoms:R:1 pbc="T T T"
Si       0.52232256       1.69111377       1.57679623       0.00000000
Si      -2.24422443       0.49427118      -0.59779103       0.00000000
Si       0.60468480      -2.09324871       1.02417456       0.00000000
Si       1.38724011       0.10019979      -1.96599576       0.00000000
Si       3.38002839      -0.97643889      -0.92939181       0.00000000
Si       0.41695884       0.53556633       3.58560046       0.00000000
Si       2.86888077       2.05260516       1.40993691       0.00000000
Si      -2.65166991       2.76644925      -0.04464858       0.00000000
Si      -1.04172921      -3.67385112       0.39458097       0.00000000
Si      -3.69546795      -0.68193198       0.88092414       0.00000000
