10
Lattice="16.28999089631971 0.0 0.0 0.0 16.28999089631971 0.0 0.0 0.0 34.71893929493243" Properties=species:S:1:pos:R:3:initial_magmoms:R:1 pbc="T T T"
Si       0.22126707       1.18887678      -1.98227895       0.00000000
Si       1.95973587       0.67891833       1.14030948       0.00000000
Si       0.26104725      -2.34566226      -0.25681614       0.00000000
Si      -2.18685105       0.95576688       0.31753960       0.00000000
Si      -0.61362801      -2.97784458       1.89454414       0.00000000
Si      -1.57459140       0.45639693      -3.25104857       0.00000000
Si      -3.29271399       0.24143409      -1.67390516       0.00000000
Si      -0.52250175       3.42365301      -1.57391455       0.00000000
Si      -1.93837968       3.30159204       0.39694185       0.00000000
Si       3.71581416       0.88847289      -0.47766343       0.00000000
