10
Lattice="16.28999089631971 0.0 0.0 0.0 16.28999089631971 0.0 0.0 0.0 34.71893929493243" Properties=species:S:1:pos:R:3:initial_magmoms:R:1 pbc="T T T"
Si       1.35742941       1.35764118      -1.35716410       0.00000000
Si      -1.35757602      -1.35793440      -1.35719881       0.00000000
Si       1.35575154      -1.35873261       1.36212891       0.00000000
Si      -1.35749457       1.35711990       1.36205947       0.00000000
Si       2.71634121      -2.71365336      -0.00090269       0.00000000
Si      -0.00032580      -2.71479366      -2.71543920       0.00000000
Si       2.71451673       2.71573848      -0.00020831       0.00000000
Si       0.00057015       2.71492398      -2.71550864       0.00000000
Si       2.71524978      -0.00011403      -2.71519616       0.00000000
Si      -2.71523349      -0.00019548      -2.71554335       0.00000000
