10
Lattice="16.28999089631971 0.0 0.0 0.0 16.28999089631971 0.0 0.0 0.0 34.71893929493243" Properties=species:S:1:pos:R:3:initial_magmoms:R:1 pbc="T T T"
Si       1.19819466       1.57915260      -1.48729075       0.00000000
Si      -1.59079995      -1.15092108      -1.56207539       0.00000000
Si       1.94456988      -1.26314289       1.10732647       0.00000000
Si      -0.96624135       0.88260849       2.23378308       0.00000000
Si       0.85296069       2.17155474       3.00509947       0.00000000
Si       2.91576339       0.79254108       2.46261574       0.00000000
Si       2.40772716       0.14141349      -3.14953034       0.00000000
Si       2.77285122      -2.85892758      -0.55668378       0.00000000
Si      -3.00376197      -2.68156206      -0.24230361       0.00000000
Si      -0.30229353      -2.58193242      -3.14164913       0.00000000
