10
Lattice="16.28999089631971 0.0 0.0 0.0 16.28999089631971 0.0 0.0 0.0 34.71893929493243" Properties=species:S:1:pos:R:3:initial_magmoms:R:1 pbc="T T T"
Si      -1.23919659       1.30942278       1.52667594       0.00000000
Si      -1.66187322      -1.10325654      -1.32781412       0.00000000
Si       1.08598914       1.55336553      -1.52331657       0.00000000
Si       1.46083833      -1.37526696       1.50801797       0.00000000
Si       2.62676250       2.55681324       0.07339241       0.00000000
Si      -2.67369399       2.64331314       0.30261739       0.00000000
Si      -2.73100221      -2.76201837       0.05067232       0.00000000
Si      -2.60131752      -0.04258206       2.88638841       0.00000000
Si       0.46820718       0.65976129      -3.80758102       0.00000000
Si       2.85260706      -2.65013865       0.10027182       0.00000000
