10
Lattice="16.28999089631971 0.0 0.0 0.0 16.28999089631971 0.0 0.0 0.0 34.71893929493243" Properties=species:S:1:pos:R:3:initial_magmoms:R:1 pbc="T T T"
Si       1.34271954       1.34978940       1.35348389       0.00000000
Si      -1.35571896       1.35638685      -1.35778904       0.00000000
Si       1.35803214      -1.35907470      -1.35695578       0.00000000
Si      -1.34617302      -1.36879983       1.40115302       0.00000000
Si      -0.02228472       2.65134411       2.76456652       0.00000000
Si      -2.71497285       2.71036278       0.00229145       0.00000000
Si       0.00073305       2.71255238      -2.71488369       0.00000000
Si       2.71142163       2.71628962       0.00281224       0.00000000
Si      -2.71423980      -0.00175932      -2.71471010       0.00000000
Si       2.71529865      -0.00208512      -2.71457122       0.00000000
