10
Lattice="16.28999089631971 0.0 0.0 0.0 16.28999089631971 0.0 0.0 0.0 34.71893929493243" Properties=species:S:1:pos:R:3:initial_magmoms:R:1 pbc="T T T"
Si      -0.93758724      -2.11996431       0.43301485       0.00000000
Si      -1.25213085       1.61800166       1.25363216       0.00000000
Si       2.33399862      -0.57539538       0.26632913       0.00000000
Si       2.91263571       1.53992858      -0.39322693       0.00000000
Si       0.16500141       1.13931838      -3.26014494       0.00000000
Si       0.26288802       3.47233472       1.25373632       0.00000000
Si      -3.28598133      -1.91304873       0.01399174       0.00000000
Si      -3.74440800       0.00715131      -1.23905020       0.00000000
Si      -0.43417737      -2.99734371       2.59992922       0.00000000
Si      -1.56234132       1.15505941       3.50644123       0.00000000
