10
Lattice="16.28999089631971 0.0 0.0 0.0 16.28999089631971 0.0 0.0 0.0 34.71893929493243" Properties=species:S:1:pos:R:3:initial_magmoms:R:1 pbc="T T T"
Si       1.65384225       1.05067242      -1.29118512       0.00000000
Si      -1.23356025       1.49288076       1.37369032       0.00000000
Si       1.49654601      -1.22948775       1.39502859       0.00000000
Si      -0.87724908      -1.93492620      -1.17442988       0.00000000
Si       0.29305710       0.94568337      -3.20854011       0.00000000
Si       3.45807378      -0.64666413      -1.31930797       0.00000000
Si      -2.56272651       0.12823488       2.75803242       0.00000000
Si       0.15012864      -2.58275018       2.75851848       0.00000000
Si       2.74277988      -2.61578304      -0.06081720       0.00000000
Si      -2.72191239      -2.77428474       0.10807665       0.00000000
