10
Lattice="16.28999089631971 0.0 0.0 0.0 16.28999089631971 0.0 0.0 0.0 34.71893929493243" Properties=species:S:1:pos:R:3:initial_magmoms:R:1 pbc="T T T"
Si      -1.35369900       1.35445648       1.35581006       0.00000000
Si       1.35454608      -1.35420575       1.36122621       0.00000000
Si      -1.35614250      -1.35794299      -1.35646972       0.00000000
Si       1.35871632       1.35750271      -1.35612253       0.00000000
Si      -0.00065160       2.70188383       2.72182749       0.00000000
Si      -2.71275741       2.71353118       0.00111101       0.00000000
Si      -2.71329498      -0.00057178      -2.71325190       0.00000000
Si      -2.71259451      -2.71410852       0.00062494       0.00000000
Si       0.00188964       2.71421536      -2.71321718       0.00000000
Si       2.71450044       0.02992473       2.71359909       0.00000000
