10
Lattice="16.28999089631971 0.0 0.0 0.0 16.28999089631971 0.0 0.0 0.0 34.71893929493243" Properties=species:S:1:pos:R:3:initial_magmoms:R:1 pbc="T T T"
Si       0.38478609       0.22496653      -2.27631381       0.00000000
Si       1.69912845       0.29121307       1.56627638       0.00000000
Si      -2.07933705       0.52864308       1.00827328       0.00000000
Si       0.42999084      -2.50724507      -0.10995494       0.00000000
Si       1.61964954      -2.09880590       1.95637860       0.00000000
Si       2.09934117      -1.51244735      -2.25596850       0.00000000
Si      -2.65797414      -1.58668088       1.66782934       0.00000000
Si      -1.86717609      -3.14986928       0.03107347       0.00000000
Si       1.15152381       2.27594595       2.74113123       0.00000000
Si      -1.41954318      -0.79668104      -3.43179547       0.00000000
