10
Lattice="16.28999089631971 0.0 0.0 0.0 16.28999089631971 0.0 0.0 0.0 34.71893929493243" Properties=species:S:1:pos:R:3:initial_magmoms:R:1 pbc="T T T"
Si      -2.30653368       0.45849834       0.12255792       0.00000000
Si       0.65278917       1.17737604      -1.93256140       0.00000000
Si       0.12531897      -2.12392278      -1.07323245       0.00000000
Si       1.00890486       1.05697665       2.04133590       0.00000000
Si      -0.38436255       3.23208261      -1.60047456       0.00000000
Si       0.08850357      -3.59446085       0.83464377       0.00000000
Si      -2.53184067       2.56344327      -0.88373637       0.00000000
Si      -2.85781986       0.63280134       2.35658404       0.00000000
Si       2.40860682      -2.31265383      -1.87107412       0.00000000
Si      -1.03068459       1.62738729       3.43964196       0.00000000
