10
Lattice="16.28999089631971 0.0 0.0 0.0 16.28999089631971 0.0 0.0 0.0 34.71893929493243" Properties=species:S:1:pos:R:3:initial_magmoms:R:1 pbc="T T T"
Si      -0.12531897       2.12392278       1.07323245       0.00000000
Si      -0.03681540      -1.47053807       1.90787622       0.00000000
Si       2.28328785      -0.18873105      -0.79784167       0.00000000
Si      -1.77512130      -0.37449733      -1.80430956       0.00000000
Si       0.52747020       3.30129882      -0.85932895       0.00000000
Si       2.31207228      -2.45481245      -1.30696048       0.00000000
Si      -2.43185265       2.58242112       1.19579038       0.00000000
Si       2.27261790      -1.31298119       2.78012062       0.00000000
Si       3.77001099      -0.44693407       1.04191595       0.00000000
Si      -0.52491267      -3.76731404       1.22276701       0.00000000
