10
Lattice="16.28999089631971 0.0 0.0 0.0 16.28999089631971 0.0 0.0 0.0 34.71893929493243" Properties=species:S:1:pos:R:3:initial_magmoms:R:1 pbc="T T T"
Si       1.42715061      -1.27692423       1.41022508       0.00000000
Si      -1.30733766       1.42133508       1.39516400       0.00000000
Si       0.74139048       1.82298132      -1.39992887       0.00000000
Si      -1.14582231      -1.72157607      -1.27820371       0.00000000
Si      -0.57888144       1.12778928      -3.38571443       0.00000000
Si       0.65840922      -3.41891262      -1.30632655       0.00000000
Si       2.66413176      -2.70003492      -0.00646467       0.00000000
Si       2.64181446       2.73984768      -0.07203142       0.00000000
Si       0.06372648      -2.64639195       2.77101383       0.00000000
Si      -2.64917754       0.07387515       2.77011114       0.00000000
