10
Lattice="16.28999089631971 0.0 0.0 0.0 16.28999089631971 0.0 0.0 0.0 34.71893929493243" Properties=species:S:1:pos:R:3:initial_magmoms:R:1 pbc="T T T"
Si       1.34183988       1.34745993      -1.37494715       0.00000000
Si      -1.35988920       1.35140211       1.35987217       0.00000000
Si       1.35565380      -1.36189287       1.35837926       0.00000000
Si      -1.38404727      -1.35324288      -1.38343940       0.00000000
Si       2.64917754      -0.07387515      -2.77011114       0.00000000
Si      -2.71347417       2.71036278      -0.00388852       0.00000000
Si       2.71388142       2.71298547       0.00083326       0.00000000
Si      -0.00087966       2.71160082       2.71637661       0.00000000
Si       2.71363707      -0.00263898       2.71658492       0.00000000
Si      -2.71321353      -2.71788876       0.00090269       0.00000000
