10
Lattice="16.28999089631971 0.0 0.0 0.0 16.28999089631971 0.0 0.0 0.0 34.71893929493243" Properties=species:S:1:pos:R:3:initial_magmoms:R:1 pbc="T T T"
Si       1.87475094       0.75875562      -1.19693610       0.00000000
Si       1.29547854       0.07377741       2.04508554       0.00000000
Si      -1.82703753       1.68023205      -0.07787462       0.00000000
Si      -0.74859066      -2.01098421      -1.26314516       0.00000000
Si       0.54437922       1.94919624      -2.70741912       0.00000000
Si      -2.18471706      -0.78258789      -2.69262884       0.00000000
Si       2.57826717      -1.87066215       1.71834542       0.00000000
Si      -0.74903049       3.35042946      -1.37730109       0.00000000
Si       2.63790486       2.75382450       0.40360789       0.00000000
Si      -2.17611594       1.29156894       2.89136016       0.00000000
