10
Lattice="16.28999089631971 0.0 0.0 0.0 16.28999089631971 0.0 0.0 0.0 34.71893929493243" Properties=species:S:1:pos:R:3:initial_magmoms:R:1 pbc="T T T"
Si      -1.63520649       1.32830289      -1.11732553       0.00000000
Si      -1.61016876      -0.94161087       1.52485667       0.00000000
Si       0.89171460      -1.79300772      -1.40990219       0.00000000
Si       2.16427311       1.01748969       0.90873402       0.00000000
Si       2.10191499      -0.24755913      -2.70728024       0.00000000
Si       2.27154276      -0.82342692       2.54198328       0.00000000
Si       0.03345966      -1.29652110       3.32076424       0.00000000
Si      -1.63973511       3.40249230       0.61379647       0.00000000
Si      -0.68269761       2.56041333      -2.79942436       0.00000000
Si      -2.58136227      -2.99729484       0.16956739       0.00000000
