10
Lattice="16.28999089631971 0.0 0.0 0.0 16.28999089631971 0.0 0.0 0.0 34.71893929493243" Properties=species:S:1:pos:R:3:initial_magmoms:R:1 pbc="T T T"
Si       1.35374993      -1.35270912      -1.35594893       0.00000000
Si      -1.35666565      -1.35663501       1.35667803       0.00000000
Si       1.35794786       1.35872132       1.35626140       0.00000000
Si      -1.35604663       1.36181968      -1.35817095       0.00000000
Si      -0.02088433      -2.68909185      -2.69684372       0.00000000
Si       2.72326977       0.01587894      -2.67170720       0.00000000
Si      -0.01813214       2.69489065      -2.73095163       0.00000000
Si       0.00115093      -2.71437393       2.71321718       0.00000000
Si      -2.71460005       0.00172294       2.71342550       0.00000000
Si       2.71507590      -2.71308702      -0.00121516       0.00000000
