10
Lattice="16.28999089631971 0.0 0.0 0.0 16.28999089631971 0.0 0.0 0.0 34.71893929493243" Properties=species:S:1:pos:R:3:initial_magmoms:R:1 pbc="T T T"
Si      -1.16302455       1.44582043       1.46592123       0.00000000
Si       0.91535139       1.80705689      -1.23268070       0.00000000
Si      -1.54077336      -1.00344771      -1.59670898       0.00000000
Si       1.56136392      -1.24875882       1.41628354       0.00000000
Si      -2.62676250      -2.55681324      -0.07339241       0.00000000
Si      -0.82394820       3.48157115      -1.11814698       0.00000000
Si      -2.66861151       2.64221261       0.16435955       0.00000000
Si      -2.50996320       0.11684817       2.81990507       0.00000000
Si       0.20080683      -2.59990029       2.81323903       0.00000000
Si       2.79608076       2.80071431      -0.00453430       0.00000000
