10
Lattice="16.28999089631971 0.0 0.0 0.0 16.28999089631971 0.0 0.0 0.0 34.71893929493243" Properties=species:S:1:pos:R:3:initial_magmoms:R:1 pbc="T T T"
Si      -0.95250888      -1.23211044       1.68209883       0.00000000
Si      -1.44156726       1.25108829      -1.31970234       0.00000000
Si       0.71231283       1.83687669       1.26720727       0.00000000
Si       1.31067711      -1.45960029      -1.29803771       0.00000000
Si      -0.95703750       0.84207897       3.41322083       0.00000000
Si       2.57637753       2.69770693       0.09703949       0.00000000
Si      -0.07286517       2.61758851      -2.67037399       0.00000000
Si       2.64797208      -0.10376730      -2.67151971       0.00000000
Si      -2.80657152       2.55264300       0.09138030       0.00000000
Si      -2.64503988      -2.71541268       0.37437453       0.00000000
