10
Lattice="16.28999089631971 0.0 0.0 0.0 16.28999089631971 0.0 0.0 0.0 34.71893929493243" Properties=species:S:1:pos:R:3:initial_magmoms:R:1 pbc="T T T"
Si       1.46479680       0.75106674       1.64015833       0.00000000
Si      -0.15216489      -2.22483933       0.75402634       0.00000000
Si       1.26540720       0.62920125      -1.92638142       0.00000000
Si      -2.28340188       0.75080610       0.02437271       0.00000000
Si      -2.17860831      -2.90053224      -0.15484656       0.00000000
Si      -3.47341896      -1.18441332       0.76864303       0.00000000
Si       1.11086397      -0.57241431       3.53956312       0.00000000
Si       1.91760993      -3.27432258       0.75402634       0.00000000
Si      -0.15527628      -2.41997724       3.06387867       0.00000000
Si      -3.01221648       1.14132627      -2.21493069       0.00000000
