10
Lattice="16.28999089631971 0.0 0.0 0.0 16.28999089631971 0.0 0.0 0.0 34.71893929493243" Properties=species:S:1:pos:R:3:initial_magmoms:R:1 pbc="T T T"
Si       0.35210835       2.14185807       0.75121411       0.00000000
Si      -1.45749888      -0.41563935       1.81607929       0.00000000
Si       2.26424484      -0.83803905      -0.26278780       0.00000000
Si      -1.49213142       0.76997943      -1.82521038       0.00000000
Si      -0.11082087      -0.71358345      -3.12727549       0.00000000
Si      -1.75611087      -2.64722274       1.03670811       0.00000000
Si       2.20832127      -1.13252967      -2.61058794       0.00000000
Si       0.52600410      -3.53193264       0.98695584       0.00000000
Si      -3.45830184       1.08028764       1.60988340       0.00000000
Si       0.32736384       3.88016464      -0.79582797       0.00000000
