10
Lattice="16.28999089631971 0.0 0.0 0.0 16.28999089631971 0.0 0.0 0.0 34.71893929493243" Properties=species:S:1:pos:R:3:initial_magmoms:R:1 pbc="T T T"
Si       1.35742103       1.35553488      -1.35765016       0.00000000
Si      -1.35928647       1.35594213       1.35685162       0.00000000
Si      -1.35780408      -1.35916821      -1.35712938       0.00000000
Si       1.35874890      -1.36160830       1.36421204       0.00000000
Si      -2.71451673       2.71141674      -0.00020831       0.00000000
Si      -0.00032580       2.71288284      -2.71415460       0.00000000
Si       2.71594766       2.71270365       0.00093741       0.00000000
Si       2.71474383      -0.00216983      -2.71429347       0.00000000
Si      -2.71577106      -0.00156873      -2.71418932       0.00000000
Si      -2.71720458       0.02800577       2.71269640       0.00000000
