10
Lattice="16.28999089631971 0.0 0.0 0.0 16.28999089631971 0.0 0.0 0.0 34.71893929493243" Properties=species:S:1:pos:R:3:initial_magmoms:R:1 pbc="T T T"
Si      -1.48672314       0.25820302      -1.83975762       0.00000000
Si       1.52230050       1.83550996       0.12537016       0.00000000
Si       1.54942335      -1.75551370      -0.52199954       0.00000000
Si      -1.49739309      -0.86604712       1.73820467       0.00000000
Si      -1.45793871      -2.00787838      -2.34887643       0.00000000
Si      -0.79105869      -3.14446426       1.65168502       0.00000000
Si       1.39577607       2.53664785       2.38696313       0.00000000
Si       0.76616757      -2.73017698      -2.52167269       0.00000000
Si      -1.81187154      -3.33135943      -0.44947164       0.00000000
Si      -0.60901794       1.81930141      -3.43002481       0.00000000
