10
Lattice="16.28999089631971 0.0 0.0 0.0 16.28999089631971 0.0 0.0 0.0 34.71893929493243" Properties=species:S:1:pos:R:3:initial_magmoms:R:1 pbc="T T T"
Si       1.76390142       0.64571931       1.46621634       0.00000000
Si      -0.87623910      -1.27818508       1.81048954       0.00000000
Si       1.69199247       0.25474302      -1.67734233       0.00000000
Si      -1.86976620       1.31087259      -0.81884664       0.00000000
Si       0.43337169      -0.02073717       3.40658951       0.00000000
Si      -1.74324177       0.60973470      -3.08043961       0.00000000
Si       1.45618006       2.97857763       1.40820096       0.00000000
Si       0.49477684      -0.12424383      -3.67677245       0.00000000
Si      -0.13431105      -3.53272175       1.63068005       0.00000000
Si      -1.39939245       3.60018774      -0.74763806       0.00000000
