10
Lattice="16.28999089631971 0.0 0.0 0.0 16.28999089631971 0.0 0.0 0.0 34.71893929493243" Properties=species:S:1:pos:R:3:initial_magmoms:R:1 pbc="T T T"
Si       1.34910522      -1.30087053      -1.44889158       0.00000000
Si       1.35521397       1.34602641       1.45944615       0.00000000
Si      -1.56775774      -1.20330972       1.41625576       0.00000000
Si      -1.36446017       1.43707122      -1.44232970       0.00000000
Si      -2.61338890       0.88800048       1.30286364       0.00000000
Si      -0.70991820       1.57555251       2.71234921       0.00000000
Si      -2.75291945      -2.62356966      -0.05089799       0.00000000
Si       2.69006544      -2.68845273       0.09179693       0.00000000
Si      -0.01093059      -2.63971305      -2.83101861       0.00000000
Si       2.70425403       0.07864812      -2.82518583       0.00000000
