10
Lattice="16.28999089631971 0.0 0.0 0.0 16.28999089631971 0.0 0.0 0.0 34.71893929493243" Properties=species:S:1:pos:R:3:initial_magmoms:R:1 pbc="T T T"
Si      -2.32639119      -0.45274797       0.56025984       0.00000000
Si      -0.59507370       1.63009143      -1.72636550       0.00000000
Si       0.20320146      -2.17417743      -1.34469999       0.00000000
Si       2.62972728       0.83408058       0.77815602       0.00000000
Si       0.11272680       0.17124048       2.92430845       0.00000000
Si      -3.05228988       1.76358798       1.03507632       0.00000000
Si      -0.88353702       0.22851612      -3.67392549       0.00000000
Si      -2.12688756       3.10585140      -0.63584301       0.00000000
Si      -2.08357245      -3.16881944       0.69854545       0.00000000
Si       0.12409722      -3.84464267       0.33472548       0.00000000
