10
Lattice="16.28999089631971 0.0 0.0 0.0 16.28999089631971 0.0 0.0 0.0 34.71893929493243" Properties=species:S:1:pos:R:3:initial_magmoms:R:1 pbc="T T T"
Si      -1.35641943      -1.35946566       1.35640028       0.00000000
Si      -1.35720135       1.35752715      -1.35761544       0.00000000
Si       1.35786924       1.35782037       1.35761544       0.00000000
Si       1.35777150      -1.35799956      -1.35754600       0.00000000
Si       0.00065160       2.71085148       2.71165483       0.00000000
Si      -0.00118917      -2.71494027       2.71346022       0.00000000
Si      -2.71406061       2.71443528      -0.00059022       0.00000000
Si       0.00076563       2.71487511      -2.71481426       0.00000000
Si       2.71501212       2.71480995      -0.00041663       0.00000000
Si       2.71464705      -0.00024435      -2.71540448       0.00000000
