10
Lattice="16.28999089631971 0.0 0.0 0.0 16.28999089631971 0.0 0.0 0.0 34.71893929493243" Properties=species:S:1:pos:R:3:initial_magmoms:R:1 pbc="T T T"
Si       1.35774683      -1.35734796       1.35650444       0.00000000
Si       1.35687555       1.35775521      -1.35785847       0.00000000
Si      -1.35777150       1.35799956       1.35754600       0.00000000
Si      -1.35806472      -1.35847197      -1.35834454       0.00000000
Si       0.00107514      -2.71195431      -2.71457122       0.00000000
Si       0.00032580      -2.71288284       2.71415460       0.00000000
Si      -2.71419093      -0.00146610       2.71394628       0.00000000
Si      -2.71544526      -2.71445157      -0.00003472       0.00000000
Si       2.71506963      -2.71505267      -0.00013888       0.00000000
Si       2.71498818       2.71524978       0.00034719       0.00000000
