10
Lattice="16.28999089631971 0.0 0.0 0.0 16.28999089631971 0.0 0.0 0.0 34.71893929493243" Properties=species:S:1:pos:R:3:initial_magmoms:R:1 pbc="T T T"
Si      -1.08356749      -0.92147643      -1.83743145       0.00000000
Si       0.95910796      -1.53209079       1.49364432       0.00000000
Si       1.40612185       1.43397612      -1.22151712       0.00000000
Si      -1.62123523       1.23170319       1.20422708       0.00000000
Si      -2.60285434       2.30159781      -0.71826582       0.00000000
Si       2.36384353      -0.07799652       2.73925640       0.00000000
Si       0.13497731      -2.97007262      -2.13101497       0.00000000
Si      -2.92655293      -2.17104975      -1.10211862       0.00000000
Si       1.42066882       0.74543040      -3.46863229       0.00000000
Si       3.63897586       1.05762825      -0.64646701       0.00000000
