10
Lattice="16.28999089631971 0.0 0.0 0.0 16.28999089631971 0.0 0.0 0.0 34.71893929493243" Properties=species:S:1:pos:R:3:initial_magmoms:R:1 pbc="T T T"
Si      -0.28888686       0.83127870      -2.16781706       0.00000000
Si      -2.09728863       0.57824613       0.95900708       0.00000000
Si       1.92476354       1.21976262       0.68635909       0.00000000
Si      -0.46784880      -2.12605677      -1.02150120       0.00000000
Si      -1.44946791      -1.05616215      -2.94399410       0.00000000
Si       0.98109687       3.45501126       0.32555968       0.00000000
Si      -2.68514586      -1.39745394       2.08841480       0.00000000
Si      -2.16518535      -3.01842297       0.46072058       0.00000000
Si       1.76332964       0.27958527      -3.31868111       0.00000000
Si      -2.03374134       2.26787751       2.59586710       0.00000000
