10
Lattice="16.28999089631971 0.0 0.0 0.0 16.28999089631971 0.0 0.0 0.0 34.71893929493243" Properties=species:S:1:pos:R:3:initial_magmoms:R:1 pbc="T T T"
Si      -1.35584928      -1.35681039       1.35737241       0.00000000
Si       1.35664749      -1.35689184      -1.35719881       0.00000000
Si       1.35697329       1.35694071       1.35744185       0.00000000
Si      -1.35811359       1.35736425      -1.35678219       0.00000000
Si       2.71283886       0.00099369      -2.71415460       0.00000000
Si       0.00000000       2.71282257      -2.71422403       0.00000000
Si       2.71411617      -2.71423980       0.00013888       0.00000000
Si      -0.00013032      -2.71417464      -2.71425875       0.00000000
Si       0.00087966       2.71257822       2.71634189       0.00000000
Si      -2.71495656      -2.71461447      -0.00003472       0.00000000
