10
Lattice="16.28999089631971 0.0 0.0 0.0 16.28999089631971 0.0 0.0 0.0 34.71893929493243" Properties=species:S:1:pos:R:3:initial_magmoms:R:1 pbc="T T T"
Si      -1.35562122       1.35653346      -1.35820566       0.00000000
Si      -1.35619137      -1.35788553       1.35695578       0.00000000
Si       1.35904116       1.35698958       1.35688634       0.00000000
Si       1.35861599      -1.35420399      -1.36087902       0.00000000
Si      -2.71283886       2.71182888      -0.00006944       0.00000000
Si      -2.71283886      -0.00099369       2.71415460       0.00000000
Si       0.00230939       2.71379997       2.71398100       0.00000000
Si      -2.71296918      -2.71516833      -0.00010416       0.00000000
Si       0.00127731      -2.71523349       2.71429347       0.00000000
Si       2.70828485      -0.00742824      -2.72218856       0.00000000
