10
Lattice="16.28999089631971 0.0 0.0 0.0 16.28999089631971 0.0 0.0 0.0 34.71893929493243" Properties=species:S:1:pos:R:3:initial_magmoms:R:1 pbc="T T T"
Si      -1.22508945       1.37225331       1.41733205       0.00000000
Si       1.35334062       1.36252818      -1.34827604       0.00000000
Si      -1.36285398      -1.35431802      -1.35046334       0.00000000
Si       1.27609344      -1.23691599       1.55023622       0.00000000
Si      -2.43528984      -0.17319528       2.71471010       0.00000000
Si      -0.61514298      -1.89967464       3.11165195       0.00000000
Si       2.27271305       0.52991370       2.94604252       0.00000000
Si      -0.00563634      -2.70734913      -2.70450273       0.00000000
Si      -2.70866862      -2.70430290       0.00062494       0.00000000
Si       2.70925084       0.00786807      -2.70471104       0.00000000
