10
Lattice="16.28999089631971 0.0 0.0 0.0 16.28999089631971 0.0 0.0 0.0 34.71893929493243" Properties=species:S:1:pos:R:3:initial_magmoms:R:1 pbc="T T T"
Si       0.10726965      -1.84091661       1.63324926       0.00000000
Si      -2.16427311      -1.01748969      -0.90873402       0.00000000
Si      -0.32218362       2.15231625       1.34692200       0.00000000
Si       1.75899420      -0.25008408      -2.07963091       0.00000000
Si       2.81337489       0.13981707       0.14245189       0.00000000
Si       1.39874085      -3.38673987       0.08506145       0.00000000
Si      -0.06235812      -1.26504882      -3.61601427       0.00000000
Si       0.97086771       3.72456189      -0.10964247       0.00000000
Si      -1.27255851      -2.81049741      -2.31863622       0.00000000
Si      -2.13081345      -2.31401079       2.41203022       0.00000000
