10
Lattice="16.28999089631971 0.0 0.0 0.0 16.28999089631971 0.0 0.0 0.0 34.71893929493243" Properties=species:S:1:pos:R:3:initial_magmoms:R:1 pbc="T T T"
Si      -1.36106208      -1.36014984       1.38470665       0.00000000
Si       1.35575154       1.35799534       1.39269201       0.00000000
Si       1.43239599      -1.32501231      -1.45137399       0.00000000
Si      -1.48164066       1.32620867      -1.42733805       0.00000000
Si       2.69091384      -2.69291619       0.05401923       0.00000000
Si       2.69366604       2.69106632       0.01991132       0.00000000
Si      -2.71635750      -2.72326446      -0.00652022       0.00000000
Si      -2.72787453       2.71250396       0.02850774       0.00000000
Si      -0.00338832       2.71147769       2.74891869       0.00000000
Si       2.71179817      -0.00382434       2.75086295       0.00000000
