10
Lattice="16.28999089631971 0.0 0.0 0.0 16.28999089631971 0.0 0.0 0.0 34.71893929493243" Properties=species:S:1:pos:R:3:initial_magmoms:R:1 pbc="T T T"
Si       1.27314495       0.62879400       1.91148699       0.00000000
Si      -2.29216590       0.64112553       0.42447399       0.00000000
Si       1.29305133       1.57224564      -1.45656447       0.00000000
Si       0.32218362      -2.15231625      -1.34692200       0.00000000
Si       0.07126875       3.28905918      -0.46009564       0.00000000
Si      -2.21268699       3.03114450       0.03437177       0.00000000
Si       0.13132998       0.04069242       3.81821748       0.00000000
Si      -3.48182460       0.23268636      -1.64185956       0.00000000
Si       3.13555851      -2.01249918      -1.20447012       0.00000000
Si       3.33339079      -0.38560059       2.12243938       0.00000000
