10
Lattice="16.28999089631971 0.0 0.0 0.0 16.28999089631971 0.0 0.0 0.0 34.71893929493243" Properties=species:S:1:pos:R:3:initial_magmoms:R:1 pbc="T T T"
Si       0.04282641       1.70598654      -1.61894504       0.00000000
Si      -2.29765563       0.31703598       0.55473952       0.00000000
Si       1.76700888       0.06390567       1.60766138       0.00000000
Si       0.36517293      -1.98205317      -1.31459865       0.00000000
Si       3.39062408       0.83728971       0.01038097       0.00000000
Si       2.32777162       2.20547052      -1.69060497       0.00000000
Si      -3.31846848       0.13014081      -1.54641714       0.00000000
Si      -0.43482897      -3.67504029       0.09728252       0.00000000
Si      -0.74042937       0.73132326      -3.61861819       0.00000000
Si      -0.59777784      -1.61551188      -3.47765922       0.00000000
