10
Lattice="16.28999089631971 0.0 0.0 0.0 16.28999089631971 0.0 0.0 0.0 34.71893929493243" Properties=species:S:1:pos:R:3:initial_magmoms:R:1 pbc="T T T"
Si       1.35496962      -1.35863487      -1.36171228       0.00000000
Si      -1.35830418       1.35858600      -1.36067071       0.00000000
Si      -1.35393683      -1.35413883       1.38681409       0.00000000
Si       1.36117611       1.36169739       1.40198627       0.00000000
Si       2.71477737      -2.71256193       0.00395796       0.00000000
Si      -2.71421441       2.71324611      -0.00423571       0.00000000
Si       2.71446786       2.71454931       0.00135404       0.00000000
Si      -2.71781450      -2.71316466       0.00107629       0.00000000
Si       2.71438641      -0.00050499      -2.71790424       0.00000000
Si      -0.00091224       2.71549413      -2.71814728       0.00000000
