10
Lattice="16.28999089631971 0.0 0.0 0.0 16.28999089631971 0.0 0.0 0.0 34.71893929493243" Properties=species:S:1:pos:R:3:initial_magmoms:R:1 pbc="T T T"
Si       1.54465853       1.44705699       0.95015374       0.00000000
Si       0.09751031       0.58735224      -2.33016291       0.00000000
Si      -2.21483631       0.50585337       0.85842625       0.00000000
Si       0.94366667      -2.23524864       0.36079942       0.00000000
Si      -1.90421859      -0.39159531      -2.91868398       0.00000000
Si      -3.17778708       0.87239466      -1.30463431       0.00000000
Si      -0.98109687      -3.45501126      -0.32555968       0.00000000
Si       2.86196567       0.08671167       2.37262420       0.00000000
Si       1.89740219      -2.11937787       2.52462380       0.00000000
Si       2.55514352       2.71301805      -0.77378143       0.00000000
