10
Lattice="16.28999089631971 0.0 0.0 0.0 16.28999089631971 0.0 0.0 0.0 34.71893929493243" Properties=species:S:1:pos:R:3:initial_magmoms:R:1 pbc="T T T"
Si      -1.57685082      -0.71434908       1.60401589       0.00000000
Si      -0.95373552      -0.11587077      -2.16382438       0.00000000
Si       1.82620674      -1.43586576       0.60532504       0.00000000
Si       0.96456348       2.20608954      -0.15199960       0.00000000
Si       1.09157661      -0.65676393      -3.32822882       0.00000000
Si      -1.80107779      -3.04287426       1.05330377       0.00000000
Si       1.20985830       2.87015139       2.11094741       0.00000000
Si      -1.89740219       2.11937787      -2.52462380       0.00000000
Si      -0.60261597      -0.27359055       3.76582657       0.00000000
Si       3.54432933      -1.22090292      -0.97181837       0.00000000
