10
Lattice="16.28999089631971 0.0 0.0 0.0 16.28999089631971 0.0 0.0 0.0 34.71893929493243" Properties=species:S:1:pos:R:3:initial_magmoms:R:1 pbc="T T T"
Si       0.77075646       0.75551947      -2.11122926       0.00000000
Si       0.70608516       1.84038948       1.33791323       0.00000000
Si       1.59651774      -1.78326630       0.25224792       0.00000000
Si      -1.97968202      -0.79097724       1.19473225       0.00000000
Si       2.02298994       0.54608967       2.72526199       0.00000000
Si       2.64539826       1.97902227      -1.13281429       0.00000000
Si      -0.72116416      -2.15888112       2.70012546       0.00000000
Si       3.29973498      -0.85397067       1.45252746       0.00000000
Si       0.59595336      -3.52401570       1.39010624       0.00000000
Si      -2.96553653      -2.50561377      -0.04559009       0.00000000
