10
Lattice="16.28999089631971 0.0 0.0 0.0 16.28999089631971 0.0 0.0 0.0 34.71893929493243" Properties=species:S:1:pos:R:3:initial_magmoms:R:1 pbc="T T T"
Si       1.27674504      -1.40006034      -1.27273453       0.00000000
Si      -1.31690478       1.29429981      -1.38734876       0.00000000
Si       1.34631963       1.34439482       1.31558467       0.00000000
Si      -1.36951985      -1.36858806       1.31575827       0.00000000
Si      -0.42647220      -2.32935597      -2.47301407       0.00000000
Si      -2.02298994      -0.54608967      -2.72526199       0.00000000
Si       2.23500429       0.17692962      -2.66920396       0.00000000
Si      -0.00834048       2.69912987       2.67004069       0.00000000
Si       2.70757719      -0.01564939       2.67104754       0.00000000
Si      -2.72326977      -0.01587894       2.67170720       0.00000000
