10
Lattice="16.28999089631971 0.0 0.0 0.0 16.28999089631971 0.0 0.0 0.0 34.71893929493243" Properties=species:S:1:pos:R:3:initial_magmoms:R:1 pbc="T T T"
Si       1.31711752      -1.36513458      -1.31001922       0.00000000
Si       1.37463426       1.33638273       1.34089479       0.00000000
Si      -1.33589535      -1.38254859       1.33787424       0.00000000
Si      -1.25851785       1.36790388      -1.50539322       0.00000000
Si      -0.63451311      -2.09767959      -2.44845631       0.00000000
Si       2.31768190       0.37561482      -2.44787754       0.00000000
Si       0.72116416       2.15888112      -2.70012546       0.00000000
Si      -2.24437236      -0.34673265      -2.74571556       0.00000000
Si      -2.69091384       2.69291619      -0.05401923       0.00000000
Si       0.02088433       2.68909185       2.69684372       0.00000000
