10
Lattice="16.28999089631971 0.0 0.0 0.0 16.28999089631971 0.0 0.0 0.0 34.71893929493243" Properties=species:S:1:pos:R:3:initial_magmoms:R:1 pbc="T T T"
Si       1.35773892       1.35708732       1.35758072       0.00000000
Si      -1.35719320      -1.35809730       1.35733769       0.00000000
Si       1.35731538      -1.35698958      -1.35945555       0.00000000
Si      -1.36132598       1.36037790      -1.35473377       0.00000000
Si       0.00819387       2.72896596      -2.67049203       0.00000000
Si      -2.71507590       2.71308702       0.00121516       0.00000000
Si      -2.71392498      -0.00128691       2.71443235       0.00000000
Si       0.00070047       2.71390128       2.71467538       0.00000000
Si       2.71577106       2.71331657       0.00055550       0.00000000
Si       2.71529865      -0.00019548       2.71457122       0.00000000
