10
Lattice="16.28999089631971 0.0 0.0 0.0 16.28999089631971 0.0 0.0 0.0 34.71893929493243" Properties=species:S:1:pos:R:3:initial_magmoms:R:1 pbc="T T T"
Si       0.93758724       2.11996431      -0.43301485       0.00000000
Si       0.50340987      -0.87737940       2.16691437       0.00000000
Si      -2.34839409       0.20691558      -0.41902311       0.00000000
Si       0.60854553      -2.00503836      -1.54027188       0.00000000
Si      -0.87467526      -2.73109995       1.57891408       0.00000000
Si      -1.50873093      -3.10003587      -0.87019598       0.00000000
Si      -3.11522467       0.00571779       1.81982894       0.00000000
Si       3.27158586       1.54456893      -0.16668572       0.00000000
Si      -0.31454361       3.73796597       0.82061731       0.00000000
Si      -2.80682076       2.12711562      -1.67206505       0.00000000
