10
Lattice="10.86 0.0 0.0 0.0 10.86 0.0 0.0 0.0 10.86" Properties=species:S:1:pos:R:3:initial_magmoms:R:1 pbc="T T T"
Si       1.35750000       1.35750000       1.35750000       0.00000000
Si       1.35750000      -1.35750000      -1.35750000       0.00000000
Si      -1.35750000      -1.35750000       1.35750000       0.00000000
Si      -1.35750000       1.35750000      -1.35750000       0.00000000
Si      -0.17979816      -2.67733752      -2.30925954       0.00000000
Si       2.47086720       2.77150458       0.02198064       0.00000000
Si       0.03448050       2.73517788       2.55046014       0.00000000
Si      -0.03474114      -2.82321990       2.56664154       0.00000000
Si      -2.71500000       0.00000000       2.71500000       0.00000000
Si       2.71500000       0.00000000       2.71500000       0.00000000
