10
Lattice="10.86 0.0 0.0 0.0 10.86 0.0 0.0 0.0 10.86" Properties=species:S:1:pos:R:3:initial_magmoms:R:1 pbc="T T T"
Si      -0.06508398       2.17561638       0.17842980       0.00000000
Si       0.60561876      -1.43155434      -1.59585528       0.00000000
Si      -1.56861840       1.13096040      -1.45580472       0.00000000
Si      -1.04618724      -0.59068626       2.27076084       0.00000000
Si      -0.72815214      -2.96083782      -0.35436180       0.00000000
Si      -0.72815214      -0.24583782      -3.06936180       0.00000000
Si      -3.44315214      -0.24583782      -0.35436180       0.00000000
Si       3.10021506      -1.54683324       1.02511884       0.00000000
Si       0.66382836      -1.58315994       3.55359834       0.00000000
Si       3.47727426       1.17766926      -1.72853190       0.00000000
