10
Lattice="10.86 0.0 0.0 0.0 10.86 0.0 0.0 0.0 10.86" Properties=species:S:1:pos:R:3:initial_magmoms:R:1 pbc="T T T"
Si       1.01195652      -1.64636514      -1.03088550       0.00000000
Si       1.01195652       1.06863486       1.68411450       0.00000000
Si      -1.70304348       1.06863486      -1.03088550       0.00000000
Si       2.36945652      -0.28886514      -2.38838550       0.00000000
Si       2.36945652       2.42613486       0.32661450       0.00000000
Si      -0.34554348       2.42613486      -2.38838550       0.00000000
Si      -2.77621782       2.61955146       0.20254986       0.00000000
Si       2.36945652      -3.00386514       0.32661450       0.00000000
Si      -0.34554348      -3.00386514      -2.38838550       0.00000000
Si       2.36945652      -0.28886514       3.04161450       0.00000000
