10
Lattice="10.86 0.0 0.0 0.0 10.86 0.0 0.0 0.0 10.86" Properties=species:S:1:pos:R:3:initial_magmoms:R:1 pbc="T T T"
Si       1.18739982       1.47388662       1.18120962       0.00000000
Si      -1.33448766      -1.41507972       1.29545682       0.00000000
Si      -1.33448766       1.29992028      -1.41954318       0.00000000
Si       1.38051234      -1.41507972      -1.41954318       0.00000000
Si      -0.03379632       2.53962186       2.61067884       0.00000000
Si       2.51722854      -2.71760640      -0.07368510       0.00000000
Si      -2.69198766      -0.05757972       2.65295682       0.00000000
Si      -2.69198766       2.65742028      -0.06204318       0.00000000
Si       2.60287050       2.78648052      -0.09590466       0.00000000
Si       0.02301234       2.65742028      -2.77704318       0.00000000
