10
Lattice="10.86 0.0 0.0 0.0 10.86 0.0 0.0 0.0 10.86" Properties=species:S:1:pos:R:3:initial_magmoms:R:1 pbc="T T T"
Si      -1.18611834      -1.37976300       1.10914266       0.00000000
Si      -1.26835026       1.29940986      -1.43346570       0.00000000
Si       1.44664974       1.29940986       1.28153430       0.00000000
Si       1.44664974      -1.41559014      -1.43346570       0.00000000
Si       0.22103358       2.46141900       2.59957992       0.00000000
Si      -2.62585026      -0.05809014      -2.79096570       0.00000000
Si       2.80414974      -0.05809014       2.63903430       0.00000000
Si       0.08914974       2.65690986      -2.79096570       0.00000000
Si       2.80414974       2.65690986      -0.07596570       0.00000000
Si      -2.76099210       2.78597010      -0.10982718       0.00000000
