10
Lattice="10.86 0.0 0.0 0.0 10.86 0.0 0.0 0.0 10.86" Properties=species:S:1:pos:R:3:initial_magmoms:R:1 pbc="T T T"
Si       1.22119614      -1.06573524      -1.42946922       0.00000000
Si      -1.30069134      -1.23970158       1.39977798       0.00000000
Si      -1.30069134       1.47529842      -1.31522202       0.00000000
Si       1.41430866       1.47529842       1.39977798       0.00000000
Si       0.03379632      -2.53962186      -2.61067884       0.00000000
Si      -2.65819134      -2.59720158       0.04227798       0.00000000
Si      -2.65819134       0.11779842      -2.67272202       0.00000000
Si       2.63666682       0.24685866      -2.70658350       0.00000000
Si       2.63095446       0.16977438       2.75513856       0.00000000
Si      -2.65819134       0.11779842       2.75727798       0.00000000
