10
Lattice="10.86 0.0 0.0 0.0 10.86 0.0 0.0 0.0 10.86" Properties=species:S:1:pos:R:3:initial_magmoms:R:1 pbc="T T T"
Si       1.04151744       1.49278302       1.19281896       0.00000000
Si       1.04151744      -1.22221698      -1.52218104       0.00000000
Si      -1.67348256      -1.22221698       1.19281896       0.00000000
Si       2.39901744       0.13528302       2.55031896       0.00000000
Si       2.39901744      -2.57971698      -0.16468104       0.00000000
Si      -0.31598256      -2.57971698       2.55031896       0.00000000
Si       2.39901744       2.85028302      -0.16468104       0.00000000
Si       2.39901744       0.13528302      -2.87968104       0.00000000
Si      -0.31598256       2.85028302       2.55031896       0.00000000
Si      -0.18409872       2.65479216      -2.91913542       0.00000000
