10
Lattice="16.290000149 0.0 0.0 0.0 16.290000149 0.0 0.0 0.0 29.1751946751" Properties=species:S:1:pos:R:3:initial_magmoms:R:1 pbc="T T T"
H       -0.15745914       0.79387687       1.27714415       0.00000000
Si       1.07787673       1.16813962      -1.70622373       0.00000000
Si      -2.20757195       0.07734492      -0.81460061       0.00000000
Si       0.85333537      -2.08463132       0.78802201       0.00000000
H       -1.45647262      -1.88397110       1.70543600       0.00000000
H       -1.56833605       2.83138122       0.81582597       0.00000000
Si      -2.73851193      -1.92107972       0.88552551       0.00000000
Si       1.95204701      -0.61382350      -2.99174116       0.00000000
Si       0.70498234      -1.66662992       3.14543609       0.00000000
Si      -3.51407557       0.34476156       1.09955474       0.00000000
