10
Lattice="16.290000149 0.0 0.0 0.0 16.290000149 0.0 0.0 0.0 29.1751946751" Properties=species:S:1:pos:R:3:initial_magmoms:R:1 pbc="T T T"
Si      -1.50403942      -1.35855343       1.16175625       0.00000000
Si       1.39253437      -1.35316144      -1.31402159       0.00000000
Si       1.33727869       1.28972818       1.43063485       0.00000000
Si      -1.34161183       1.34671060      -1.38348773       0.00000000
H       -0.86183875      -2.20048580       2.24205536       0.00000000
Si      -0.00702099      -2.72445365      -2.62763473       0.00000000
Si       2.69045642       2.67271661       0.07579716       0.00000000
Si      -2.92692207      -0.13040145       2.45637634       0.00000000
Si       2.74799271      -2.66442500       0.10826915       0.00000000
Si       2.73307106      -0.00475668      -2.68624770       0.00000000
