10
Lattice="16.290000149 0.0 0.0 0.0 16.290000149 0.0 0.0 0.0 29.1751946751" Properties=species:S:1:pos:R:3:initial_magmoms:R:1 pbc="T T T"
Si       1.41954156       1.43633818       1.17033376       0.00000000
Si       1.43522069      -1.24690177      -1.36618684       0.00000000
Si      -1.29186217       1.41288058      -1.35836789       0.00000000
Si      -1.63914869      -1.05932242       1.42640444       0.00000000
H        0.24896007      -2.70001865       1.68655965       0.00000000
H       -1.10599327       1.41014386       2.81698175       0.00000000
Si      -0.06721254       2.51292800       2.59656315       0.00000000
Si      -2.62438418       2.48549564       0.26041779       0.00000000
Si      -3.31532454       0.62755597       1.67909080       0.00000000
Si       0.07593714      -2.65792529      -2.67848710       0.00000000
