10
Lattice="16.290000149 0.0 0.0 0.0 16.290000149 0.0 0.0 0.0 29.1751946751" Properties=species:S:1:pos:R:3:initial_magmoms:R:1 pbc="T T T"
Si      -1.44874872       1.38552967      -1.22452085       0.00000000
Si      -1.30231791      -1.28932093       1.47016723       0.00000000
Si       1.36107594       1.39696525       1.31647231       0.00000000
Si       1.43106430      -1.30676752      -1.35297048       0.00000000
Si      -2.62705330      -2.62536859       0.13187188       0.00000000
Si      -0.14224184       2.71650413      -2.60389984       0.00000000
Si       0.08429423      -2.51865850      -2.83556635       0.00000000
Si       2.71002316      -2.67965615       0.03355147       0.00000000
Si       2.65493038       0.04383639       2.74824499       0.00000000
Si       0.01139762       2.72297126       2.72464226       0.00000000
