10
Lattice="16.290000149 0.0 0.0 0.0 16.290000149 0.0 0.0 0.0 29.1751946751" Properties=species:S:1:pos:R:3:initial_magmoms:R:1 pbc="T T T"
Si      -0.92636181       0.81696306       1.99931774       0.00000000
Si       1.36424027       1.38440892      -1.33450258       0.00000000
Si      -1.87466788      -0.89297383      -1.12260314       0.00000000
Si       1.84344321      -1.17470123       0.93191407       0.00000000
H        2.64627957       1.42151754      -0.51459208       0.00000000
H       -2.92586159       0.22303128      -1.11694315       0.00000000
Si       0.52902101      -2.60084188       2.27960384       0.00000000
Si       1.96705173      -0.13459124      -3.09192878       0.00000000
Si      -0.64013918      -1.00945189       3.56751363       0.00000000
Si       0.41107652       2.79333103       2.48768132       0.00000000
