10
Lattice="16.290000149 0.0 0.0 0.0 16.290000149 0.0 0.0 0.0 29.1751946751" Properties=species:S:1:pos:R:3:initial_magmoms:R:1 pbc="T T T"
Si      -1.41444442      -1.28305091       1.38080361       0.00000000
Si       1.32370912      -1.39440121      -1.36472808       0.00000000
Si       1.39955536       1.37129221       1.31361314       0.00000000
Si      -1.34742736       1.33359715      -1.40709046       0.00000000
Si       0.00702099       2.72445365       2.62763473       0.00000000
Si      -2.64280817      -2.71748153      -0.04510485       0.00000000
Si       2.58494609      -2.78653485       0.06552749       0.00000000
Si       2.69070077      -0.03536559      -2.74176809       0.00000000
Si      -2.71753040       2.72069066      -0.09604474       0.00000000
Si       2.74009205       2.71969697      -0.05861297       0.00000000
