10
Lattice="16.290000149 0.0 0.0 0.0 16.290000149 0.0 0.0 0.0 29.1751946751" Properties=species:S:1:pos:R:3:initial_magmoms:R:1 pbc="T T T"
Si       0.71568487      -0.40682646       2.10220990       0.00000000
Si      -1.02504826      -1.74876410      -1.13342714       0.00000000
Si      -1.66589687       1.62020341      -0.07244201       0.00000000
Si       1.73361440       0.53395362      -1.54024605       0.00000000
H        0.63700417      -0.44763291      -2.33337372       0.00000000
Si      -0.23159493       3.01891170      -1.25357059       0.00000000
H       -0.50238360      -3.02018232       1.27769848       0.00000000
H        3.15731154       1.06746742      -0.54012038       0.00000000
Si      -1.20277216      -1.20482470       3.19338844       0.00000000
Si      -1.95781367      -0.70667650      -2.98281355       0.00000000
