10
Lattice="16.290000149 0.0 0.0 0.0 16.290000149 0.0 0.0 0.0 29.1751946751" Properties=species:S:1:pos:R:3:initial_magmoms:R:1 pbc="T T T"
Si       1.37135737      -1.34597755      -1.33800360       0.00000000
Si       1.37868787       1.33545421       1.34445132       0.00000000
Si      -1.34959393      -1.36472734       1.35687995       0.00000000
Si      -1.34640109       1.35907471      -1.36901683       0.00000000
Si       0.00026064       2.70141959       2.65651818       0.00000000
Si      -0.01451439      -2.69612534      -2.66282002       0.00000000
Si      -2.72073953      -0.00801468       2.68960285       0.00000000
Si       2.74170477       0.01260846      -2.67556958       0.00000000
Si      -2.69462666       0.00273672      -2.73144008       0.00000000
Si       2.73518877       2.69114060      -0.01292461       0.00000000
