10
Lattice="16.290000149 0.0 0.0 0.0 16.290000149 0.0 0.0 0.0 29.1751946751" Properties=species:S:1:pos:R:3:initial_magmoms:R:1 pbc="T T T"
Si      -1.43243836       1.21134070      -1.38436299       0.00000000
Si       1.14113080      -1.42884478      -1.46339859       0.00000000
Si      -1.47800312      -1.20495502       1.38398371       0.00000000
Si       1.50149818       1.34040637       1.30471471       0.00000000
H        0.02937087      -2.67771764       0.75619187       0.00000000
H       -2.61869897      -0.24177618       1.66838351       0.00000000
H        2.04574709      -2.32948631      -0.65492477       0.00000000
Si      -0.18500553      -1.04940181       3.40990923       0.00000000
Si      -0.06592563       2.63972936      -2.68376781       0.00000000
Si      -2.86765905       2.45824247      -0.01817615       0.00000000
