10
Lattice="16.290000149 0.0 0.0 0.0 16.290000149 0.0 0.0 0.0 29.1751946751" Properties=species:S:1:pos:R:3:initial_magmoms:R:1 pbc="T T T"
Si      -1.22723974       1.10795947      -1.62441649       0.00000000
Si      -1.89302834      -0.01385139       1.33841206       0.00000000
Si       1.57708378       1.68157925       0.45215717       0.00000000
Si       0.44105175      -2.29080245       0.30149646       0.00000000
H        1.82540855       0.57693968      -2.39224926       0.00000000
H       -2.06809697       1.36465730       1.96897554       0.00000000
Si      -1.05974596      -1.26922396       3.04599827       0.00000000
Si       2.05179068      -2.47118162      -1.37803197       0.00000000
Si       0.84812257       2.31229547       2.63135078       0.00000000
Si      -2.59076162       2.63607552      -0.44215008       0.00000000
