10
Lattice="16.290000149 0.0 0.0 0.0 16.290000149 0.0 0.0 0.0 29.1751946751" Properties=species:S:1:pos:R:3:initial_magmoms:R:1 pbc="T T T"
H       -0.90937297      -0.07553673       1.21578871       0.00000000
Si      -0.89319700       1.41279913      -1.59579562       0.00000000
Si       0.33347259      -2.11818872      -0.93742818       0.00000000
Si       1.89084548       1.33830496       0.38584195       0.00000000
H        0.98466535       0.35513829       2.46276571       0.00000000
H       -2.17899929      -1.83835910       0.78583387       0.00000000
Si       0.28681803       2.87536096       1.46007262       0.00000000
Si      -0.33182730       0.37685286      -3.60503293       0.00000000
Si      -1.72612100      -2.82323622      -1.83494469       0.00000000
Si       1.55290942      -3.43585425       0.58315379       0.00000000
