10
Lattice="16.290000149 0.0 0.0 0.0 16.290000149 0.0 0.0 0.0 29.1751946751" Properties=species:S:1:pos:R:3:initial_magmoms:R:1 pbc="T T T"
Si       1.42288264      -1.22815198      -1.29462009       0.00000000
Si      -1.22582251       1.52818120      -1.24674359       0.00000000
Si       1.48976938       0.99947296       1.48137051       0.00000000
Si      -1.12772413      -1.44399448       1.54433058       0.00000000
H        2.06508332      -2.07008435      -0.21432098       0.00000000
Si      -2.00189441       0.33796863       2.82984801       0.00000000
Si      -0.13245399       1.80348221       2.98117974       0.00000000
Si       2.46203804      -0.87882922       2.34769874       0.00000000
Si      -0.01492164      -2.56025045      -2.50439871       0.00000000
Si       0.68802445      -2.34372377       2.68936945       0.00000000
