10
Lattice="16.290000149 0.0 0.0 0.0 16.290000149 0.0 0.0 0.0 29.1751946751" Properties=species:S:1:pos:R:3:initial_magmoms:R:1 pbc="T T T"
Si      -0.34795440       0.88089805       2.13577013       0.00000000
Si      -1.85510522      -0.93090835      -1.10708194       0.00000000
Si       1.05489154       1.76233367      -1.18249982       0.00000000
Si       1.60181200      -1.77691322      -0.09032640       0.00000000
Si       2.13780188       0.34279047      -2.68093781       0.00000000
Si      -0.67201138      -2.38221704      -2.51921971       0.00000000
Si       1.27343818       2.56808594       2.20366080       0.00000000
Si       2.22814622      -2.18263196       2.05711380       0.00000000
Si       3.43269399      -0.95099392      -1.25450420       0.00000000
Si      -3.15716493      -2.16736823       0.39313575       0.00000000
