10
Lattice="16.290000149 0.0 0.0 0.0 16.290000149 0.0 0.0 0.0 29.1751946751" Properties=species:S:1:pos:R:3:initial_magmoms:R:1 pbc="T T T"
H       -0.06082686      -1.07989669      -1.06063503       0.00000000
Si       2.19209971       0.18342540       0.66195599       0.00000000
Si      -1.60752979      -0.69349789       1.56857517       0.00000000
Si      -0.47583090       2.12920076      -0.89045612       0.00000000
H       -1.92396305       2.40036410      -0.47074177       0.00000000
H        1.06490989       0.72363439      -2.99372508       0.00000000
Si      -3.12253239      -1.42838866      -0.08099034       0.00000000
H       -1.32243850      -3.24379352       0.66548619       0.00000000
Si       2.96766336      -2.08241588       0.44792676       0.00000000
Si       3.49860333      -0.08399124      -1.25219936       0.00000000
