10
Lattice="16.290000149 0.0 0.0 0.0 16.290000149 0.0 0.0 0.0 29.1751946751" Properties=species:S:1:pos:R:3:initial_magmoms:R:1 pbc="T T T"
Si      -1.32001129      -1.33964074      -1.39817452       0.00000000
Si       1.35698959       1.31530348      -1.39628105       0.00000000
Si      -1.37507149       1.36055710       1.33779938       0.00000000
Si       1.35435061      -1.36560700       1.35723006       0.00000000
Si       2.70254360       2.68516217      -0.03448508       0.00000000
Si      -2.68971197      -2.70063767      -0.03174261       0.00000000
Si       0.10428858      -2.72144000      -2.67775480       0.00000000
Si      -0.01459584       2.71494029       2.69085738       0.00000000
Si       2.70257618      -0.00926901       2.71965330       0.00000000
Si      -2.70556703       0.00296478       2.72131628       0.00000000
