10
Lattice="16.290000149 0.0 0.0 0.0 16.290000149 0.0 0.0 0.0 29.1751946751" Properties=species:S:1:pos:R:3:initial_magmoms:R:1 pbc="T T T"
H       -0.88645294       0.85449196      -0.88225789       0.00000000
Si       1.02851803      -1.48750507      -1.47232620       0.00000000
Si      -1.39478239      -1.23861016       1.42261167       0.00000000
Si       1.89726374       1.30507336       0.62700411       0.00000000
Si       1.94834918       0.34174791      -2.64534408       0.00000000
Si       0.01972719       1.83765863      -2.95918165       0.00000000
H       -2.78049126       0.42381693      -2.12923488       0.00000000
Si       2.14529528       0.78436351       2.92415770       0.00000000
Si       0.00146610      -2.66268197       2.64934108       0.00000000
Si       2.53441451      -2.79599934      -0.17989425       0.00000000
