10
Lattice="16.290000149 0.0 0.0 0.0 16.290000149 0.0 0.0 0.0 29.1751946751" Properties=species:S:1:pos:R:3:initial_magmoms:R:1 pbc="T T T"
H        0.90461629      -0.90064153       0.80847382       0.00000000
Si       1.34806267       1.30882006      -1.38976040       0.00000000
Si      -1.14113080       1.42884478       1.46339859       0.00000000
Si      -1.31261563      -1.46724031      -1.28058682       0.00000000
H       -1.11175993      -1.24887286       2.21959046       0.00000000
Si      -2.57356916       2.64018548       0.07903560       0.00000000
Si      -0.49741515      -2.55299326       2.66273249       0.00000000
Si      -2.66144231      -0.13211190      -2.65581797       0.00000000
Si      -0.00780291       2.66590739      -2.69435840       0.00000000
Si       2.73538425       2.66045024      -0.09490691       0.00000000
