10
Lattice="16.290000149 0.0 0.0 0.0 16.290000149 0.0 0.0 0.0 29.1751946751" Properties=species:S:1:pos:R:3:initial_magmoms:R:1 pbc="T T T"
Si       1.36684504       1.35215146      -1.34920980       0.00000000
Si      -1.34555401      -1.36985869      -1.36179597       0.00000000
Si       1.35169534      -1.31841487       1.40831582       0.00000000
Si      -1.36236529       1.37391490       1.34938193       0.00000000
Si       2.67309128       2.64704357       0.12478231       0.00000000
Si      -2.70254360      -2.68516217       0.03448508       0.00000000
Si       0.07923456      -2.74631484      -2.65512360       0.00000000
Si      -0.00415395       2.76289806      -2.65532783       0.00000000
Si       2.76959325      -2.64991061       0.10686874       0.00000000
Si      -2.71751411      -0.01804932      -2.72493984       0.00000000
