10
Lattice="16.290000149 0.0 0.0 0.0 16.290000149 0.0 0.0 0.0 29.1751946751" Properties=species:S:1:pos:R:3:initial_magmoms:R:1 pbc="T T T"
Si       1.45409836       1.17957520      -1.41936739       0.00000000
Si      -1.40004406      -1.31854519      -1.36066689       0.00000000
Si      -1.33685515       1.43902603       1.31068395       0.00000000
Si       1.38440566      -1.36143676       1.35695289       0.00000000
Si       0.08474058      -2.62311356      -2.60005834       0.00000000
Si       0.05100399       2.35149410      -2.87862310       0.00000000
H       -0.84952351       3.09312894      -1.90005789       0.00000000
Si       2.67416480       2.66841605      -0.01987706       0.00000000
Si      -2.67791312       0.02355534       2.67470016       0.00000000
Si      -2.61226442      -2.74691757       0.09091282       0.00000000
