10
Lattice="16.290000149 0.0 0.0 0.0 16.290000149 0.0 0.0 0.0 29.1751946751" Properties=species:S:1:pos:R:3:initial_magmoms:R:1 pbc="T T T"
Si       1.38160378      -1.35599590      -1.32460052       0.00000000
Si       1.33690402       1.32416524       1.40515323       0.00000000
Si      -1.35288451      -1.39787749       1.32031177       0.00000000
Si      -1.32804226       1.39522222      -1.37037932       0.00000000
Si      -0.03513753      -2.64886805      -2.66730483       0.00000000
Si      -2.65755062       2.70868493       0.05054894       0.00000000
Si       2.70335810       0.04575861      -2.66880764       0.00000000
Si      -2.70475904      -0.02868669       2.67897141       0.00000000
Si       2.68653053       2.71786663       0.09363195       0.00000000
Si      -2.75589336       0.03702717      -2.64985048       0.00000000
