10
Lattice="16.290000149 0.0 0.0 0.0 16.290000149 0.0 0.0 0.0 29.1751946751" Properties=species:S:1:pos:R:3:initial_magmoms:R:1 pbc="T T T"
Si       1.29630934       1.28377956       1.50775947       0.00000000
Si      -1.33517728      -1.36406059       1.40929903       0.00000000
Si       1.48305790      -1.29842818      -1.34048349       0.00000000
Si      -1.36029646       1.38467005      -1.39740430       0.00000000
Si      -0.00452862      -2.55323060      -2.71457681       0.00000000
Si      -2.60690501       2.72821550       0.09220674       0.00000000
Si       2.69622308      -2.71352421       0.11087070       0.00000000
Si       2.35825445       2.37099209      -1.87762800       0.00000000
Si       2.28534041       3.06892086       0.35281855       0.00000000
Si       0.15745914       2.75871038      -2.68099616       0.00000000
