10
Lattice="16.290000149 0.0 0.0 0.0 16.290000149 0.0 0.0 0.0 29.1751946751" Properties=species:S:1:pos:R:3:initial_magmoms:R:1 pbc="T T T"
Si      -1.33170751      -1.35510484      -1.38328351       0.00000000
Si       1.33214734      -1.36623091       1.37199270       0.00000000
Si       1.35185824       1.35115289      -1.37324724       0.00000000
Si      -1.37086867       1.33996166       1.36563251       0.00000000
Si      -2.69465924       2.70454239      -0.02695788       0.00000000
Si       0.00216657       2.72402523       2.67519030       0.00000000
Si       2.70309746       0.00578947       2.70173973       0.00000000
Si       2.70176657      -2.70605084      -0.00834411       0.00000000
Si      -2.69166188      -2.71828463      -0.04078692       0.00000000
Si      -2.69188994      -0.00202648      -2.73558295       0.00000000
