10
Lattice="16.290000149 0.0 0.0 0.0 16.290000149 0.0 0.0 0.0 29.1751946751" Properties=species:S:1:pos:R:3:initial_magmoms:R:1 pbc="T T T"
Si      -1.40415240       1.31924566       1.31265036       0.00000000
Si       1.37005091      -1.23849613       1.44507657       0.00000000
Si       1.33118297       1.39797523      -1.34185473       0.00000000
Si      -1.39234215      -1.37529955      -1.31122077       0.00000000
Si       2.56930444      -2.64116288      -0.02891262       0.00000000
Si      -0.11595385       2.72813520       2.63274039       0.00000000
Si       2.62983808       0.04010598      -2.75947744       0.00000000
Si       0.00353819      -2.66688479       2.74448139       0.00000000
Si      -2.72716105       2.69203655      -0.02243572       0.00000000
Si      -2.73208063      -0.00975771      -2.68715213       0.00000000
