10
Lattice="16.290000149 0.0 0.0 0.0 16.290000149 0.0 0.0 0.0 29.1751946751" Properties=species:S:1:pos:R:3:initial_magmoms:R:1 pbc="T T T"
H       -1.96634963      -0.66264463      -1.03160571       0.00000000
H        1.20625822      -2.01953648       0.20664790       0.00000000
Si       1.88240726       0.67979800       1.28426289       0.00000000
Si      -0.76408246      -1.87317083       1.25470842       0.00000000
Si      -1.79204663       1.51698997       0.64774767       0.00000000
Si       0.63084655      -0.36869157      -2.32380426       0.00000000
H       -2.62497062      -0.25777296      -1.12808808       0.00000000
H       -0.43737021       2.11685294      -2.20792038       0.00000000
H        2.84017782       0.41389632      -1.18591331       0.00000000
H        2.34657452       1.96788089       0.63739048       0.00000000
