10
Lattice="16.290000149 0.0 0.0 0.0 16.290000149 0.0 0.0 0.0 29.1751946751" Properties=species:S:1:pos:R:3:initial_magmoms:R:1 pbc="T T T"
Si       1.22723974      -1.10795947       1.62441649       0.00000000
Si      -1.81327250      -1.32912066      -0.58604214       0.00000000
Si       1.25255440       1.28438506      -1.51430930       0.00000000
Si      -1.36352188       1.52811604       1.18226641       0.00000000
H        0.29853054       2.82924723      -0.01768017       0.00000000
H        3.05264829      -0.53101980      -0.76783277       0.00000000
Si      -0.66578860      -1.12181086       2.96282854       0.00000000
Si      -0.20924505      -2.86617666      -1.66027280       0.00000000
Si       2.76755700       2.01927584       0.13525620       0.00000000
Si      -3.05729094       0.51996051      -1.54080038       0.00000000
