10
Lattice="16.290000149 0.0 0.0 0.0 16.290000149 0.0 0.0 0.0 29.1751946751" Properties=species:S:1:pos:R:3:initial_magmoms:R:1 pbc="T T T"
Si       1.32473539       1.33604766       1.33829535       0.00000000
Si      -1.41866353       1.34174590      -1.25368437       0.00000000
Si       1.23211045      -1.20063117      -1.59592108       0.00000000
Si      -1.45912789      -1.43626602       1.21590541       0.00000000
Si      -2.45952938      -0.50697038      -2.21364747       0.00000000
Si      -0.71070013      -2.04925872      -2.66099569       0.00000000
Si       2.62705330       2.62536859      -0.13187188       0.00000000
Si       2.64255829      -0.09848234       2.61415579       0.00000000
Si       2.53309502      -2.73065314      -0.27732481       0.00000000
Si      -0.11657124       2.66829274       2.62232485       0.00000000
