10
Lattice="16.290000149 0.0 0.0 0.0 16.290000149 0.0 0.0 0.0 29.1751946751" Properties=species:S:1:pos:R:3:initial_magmoms:R:1 pbc="T T T"
Si      -1.32473539      -1.33604766      -1.33829535       0.00000000
Si       1.31782289      -1.43452999       1.27586044       0.00000000
Si      -1.44130663       1.33224508       1.28402949       0.00000000
Si       1.30231791       1.28932093      -1.47016723       0.00000000
Si       2.63215940      -0.05052344       2.63956739       0.00000000
Si      -0.07247421       2.68107338       2.62147877       0.00000000
Si      -2.74339893       0.00569824      -2.59197973       0.00000000
Si       2.66339385       2.68628618      -0.15369493       0.00000000
Si      -0.14643081       2.67485060      -2.69468808       0.00000000
Si      -0.08013051      -2.76941406       2.61080065       0.00000000
