10
Lattice="16.290000149 0.0 0.0 0.0 16.290000149 0.0 0.0 0.0 29.1751946751" Properties=species:S:1:pos:R:3:initial_magmoms:R:1 pbc="T T T"
H        1.19599552       0.36826803       0.89033942       0.00000000
Si       0.85626757       1.48155922      -1.63258554       0.00000000
Si      -0.74974400      -2.11835162       1.17406818       0.00000000
Si       0.55675963      -2.38576826      -0.74008716       0.00000000
Si      -2.18289260       1.41020902       1.04094177       0.00000000
H        2.60687243      -1.66923632       1.35165759       0.00000000
Si      -3.41767461      -0.17257626      -0.37834392       0.00000000
H       -1.87693382      -1.57814263      -2.48161288       0.00000000
Si      -0.24641883      -1.21327921       3.27208561       0.00000000
Si       1.28135512       3.29566251      -0.14861844       0.00000000
