10
Lattice="16.290000149 0.0 0.0 0.0 16.290000149 0.0 0.0 0.0 29.1751946751" Properties=species:S:1:pos:R:3:initial_magmoms:R:1 pbc="T T T"
Si      -1.39253437       1.35316144       1.31402159       0.00000000
Si       1.34053669       1.34840476      -1.37222611       0.00000000
Si      -1.39955536      -1.37129221      -1.31361314       0.00000000
Si       1.35545833      -1.31126356       1.42229074       0.00000000
Si       2.58677057      -2.74125027       0.00793565       0.00000000
Si       2.68408703       2.67537188       0.03559374       0.00000000
Si      -2.89657380      -0.00539199       2.47577784       0.00000000
Si      -0.05525568       2.64288962       2.74465644       0.00000000
Si       2.66418065      -0.02259423      -2.74582345       0.00000000
Si       0.00755856      -2.33921144       3.04860362       0.00000000
