10
Lattice="16.290000149 0.0 0.0 0.0 16.290000149 0.0 0.0 0.0 29.1751946751" Properties=species:S:1:pos:R:3:initial_magmoms:R:1 pbc="T T T"
H       -1.44813214       0.27116334       0.41971435       0.00000000
Si       0.47583090      -2.12920076       0.89045612       0.00000000
Si      -0.34736796       0.23512986      -2.36342417       0.00000000
Si       1.23478201       1.58278528       1.41928570       0.00000000
H        0.18578745       2.70459614      -0.97284687       0.00000000
H        1.54074079      -1.40556637      -2.10326896       0.00000000
H        0.41500404      -3.20909745      -0.17017891       0.00000000
Si      -0.77198311       2.97049782       1.49732934       0.00000000
Si       3.41767461       0.17257626       0.37834392       0.00000000
Si      -2.02354382       1.92200825      -2.11073781       0.00000000
