10
Lattice="16.290000149 0.0 0.0 0.0 16.290000149 0.0 0.0 0.0 29.1751946751" Properties=species:S:1:pos:R:3:initial_magmoms:R:1 pbc="T T T"
Si      -1.34635222       1.34506531      -1.36516571       0.00000000
Si      -1.35540946      -1.36987498       1.34725214       0.00000000
Si       1.35738055       1.34796493       1.36802488       0.00000000
Si       1.34265439      -1.30359097      -1.42462476       0.00000000
Si      -2.76760587      -0.11411145      -2.59109280       0.00000000
Si       0.11277567       2.78133133      -2.58107112       0.00000000
Si      -2.70008381       2.67273290       0.03749013       0.00000000
Si       2.69133608      -2.68760567      -0.06182224       0.00000000
Si       0.00713502      -2.70998813       2.71110497       0.00000000
Si      -2.71080263      -0.01777239       2.71338063       0.00000000
