10
Lattice="16.290000149 0.0 0.0 0.0 16.290000149 0.0 0.0 0.0 29.1751946751" Properties=species:S:1:pos:R:3:initial_magmoms:R:1 pbc="T T T"
H        0.65862100      -0.40487166       0.09648237       0.00000000
H       -1.19475748      -1.56201553       1.14652680       0.00000000
Si      -1.88131583      -1.68981059      -0.18701300       0.00000000
Si       0.83292400       1.77476294       1.77583575       0.00000000
Si      -0.09710469       0.83675215      -2.55889797       0.00000000
Si      -2.22119039       0.25534575      -1.55675921       0.00000000
Si       2.62497062       0.25777296       1.12808808       0.00000000
Si       1.39000942      -0.96433543      -2.43507845       0.00000000
Si      -0.25909245      -2.49381983      -1.68682223       0.00000000
Si      -0.38651283       3.09242847       0.25525378       0.00000000
