10
Lattice="16.290000149 0.0 0.0 0.0 16.290000149 0.0 0.0 0.0 29.1751946751" Properties=species:S:1:pos:R:3:initial_magmoms:R:1 pbc="T T T"
Si       1.40137984       1.41657678       1.25602131       0.00000000
Si      -1.26123697       1.39213364      -1.43025557       0.00000000
Si       1.42998508      -1.28194156      -1.41172932       0.00000000
Si      -1.29722158      -1.59005062       1.27638559       0.00000000
Si      -2.52801254      -2.72746730      -0.34873110       0.00000000
Si       0.28202877      -2.67721265       2.59606717       0.00000000
Si      -2.58494609       2.78653485      -0.06552749       0.00000000
Si       2.87036095       0.12431600       2.52870165       0.00000000
Si      -2.56792304       0.07786620      -2.87641162       0.00000000
Si       2.86900594      -2.63112824      -0.12498653       0.00000000
