10
Lattice="16.290000149 0.0 0.0 0.0 16.290000149 0.0 0.0 0.0 29.1751946751" Properties=species:S:1:pos:R:3:initial_magmoms:R:1 pbc="T T T"
Si      -1.39188277      -1.34306164      -1.33015548       0.00000000
Si      -1.35871633       1.35552349       1.35419584       0.00000000
Si       1.33020883      -1.36987498       1.37222611       0.00000000
Si       1.35832537       1.34509789      -1.37295549       0.00000000
Si      -0.03606606      -2.73827083      -2.61972826       0.00000000
Si       2.70655094       2.70143588      -0.01053225       0.00000000
Si      -2.70159227       2.71366967      -0.00886926       0.00000000
Si       2.68982111      -2.72729463       0.03270539       0.00000000
Si       2.70335810      -0.02236617       2.71536454       0.00000000
Si      -0.01086543       2.71746524       2.70456972       0.00000000
