10
Lattice="16.290000149 0.0 0.0 0.0 16.290000149 0.0 0.0 0.0 29.1751946751" Properties=species:S:1:pos:R:3:initial_magmoms:R:1 pbc="T T T"
Si       1.43780428       1.33209847       1.20977862       0.00000000
Si      -1.24010884       1.38880396      -1.37304301       0.00000000
Si       1.52037829      -1.31685266      -1.19880875       0.00000000
Si      -1.16159104      -1.44029502       1.50392294       0.00000000
H        2.08000496       0.49016610       2.29007773       0.00000000
Si       2.50155758      -2.18167737       0.78519201       0.00000000
Si       0.75582343      -2.50362478       2.27945796       0.00000000
Si       0.01492164       2.56025045       2.50439871       0.00000000
Si      -2.41606766      -2.75962377       0.03366817       0.00000000
Si      -2.53320905      -0.04799034      -2.68642275       0.00000000
