10
Lattice="16.290000149 0.0 0.0 0.0 16.290000149 0.0 0.0 0.0 29.1751946751" Properties=species:S:1:pos:R:3:initial_magmoms:R:1 pbc="T T T"
Si      -1.24660855       1.34354546       1.48961104       0.00000000
Si       1.36029646      -1.38467005       1.39740430       0.00000000
Si      -1.44653572      -1.43951962      -1.27708580       0.00000000
Si       1.51775560       1.37404034      -1.28359186       0.00000000
H       -0.64369936       1.15669915      -2.72359195       0.00000000
Si      -0.03557736      -2.62135913      -2.74503572       0.00000000
Si      -2.58334804      -0.06237930       2.84110963       0.00000000
Si      -2.87890240       2.52851265       0.27868146       0.00000000
Si       3.71855091       0.98632204      -0.48022370       0.00000000
Si       0.14066415       2.62055115       2.86454023       0.00000000
