10
Lattice="16.290000149 0.0 0.0 0.0 16.290000149 0.0 0.0 0.0 29.1751946751" Properties=species:S:1:pos:R:3:initial_magmoms:R:1 pbc="T T T"
Si      -1.28203930      -0.03710862      -0.81991050       0.00000000
Si       2.30980799      -0.20066022      -0.91741400       0.00000000
Si       2.16145496       0.21734118       1.44000008       0.00000000
Si       1.45647262       1.88397110      -1.70543600       0.00000000
H        1.29901348       2.67784796      -0.42829186       0.00000000
Si       0.64369936      -1.15669915       2.72359195       0.00000000
Si      -2.64627957      -1.42151754       0.51459208       0.00000000
Si      -0.80283637      -2.59621877       1.44650615       0.00000000
Si      -0.67922785      -1.55610878      -2.57733670       0.00000000
Si      -2.05760295       2.22873266      -0.60588127       0.00000000
