10
Lattice="16.28999089631971 0.0 0.0 0.0 16.28999089631971 0.0 0.0 0.0 34.450931932916035" Properties=species:S:1:pos:R:3:initial_magmoms:R:1 pbc="T T T"
Si      -1.34812782      -1.33477150       1.35923127       0.00000000
Si      -1.39227372       1.30796564      -1.34546467       0.00000000
Si       1.36669842       1.38070049       1.34972281       0.00000000
Si       1.31098662      -1.32744100      -1.45797803       0.00000000
Si       2.23041051       0.63652768      -2.47781128       0.00000000
Si       0.34204113       2.26604244      -2.66341372       0.00000000
Si      -2.72541474      -2.66273230      -0.01561317       0.00000000
Si       2.72244996      -2.68195450      -0.01945445       0.00000000
Si       0.00829161      -2.69254300       2.71391158       0.00000000
Si      -2.70477531       0.02119091       2.71398048       0.00000000
