10
Lattice="16.28999089631971 0.0 0.0 0.0 16.28999089631971 0.0 0.0 0.0 34.450931932916035" Properties=species:S:1:pos:R:3:initial_magmoms:R:1 pbc="T T T"
Si       0.99147456       1.80555102      -1.37848591       0.00000000
Si       0.20137698       0.26839404       2.49180285       0.00000000
Si      -1.83049820      -0.92688471      -1.46905746       0.00000000
Si       1.78349436      -1.78013862      -0.42540035       0.00000000
Si      -0.27534335       2.55915900       2.51684869       0.00000000
Si       2.22992181       0.48169530      -3.02310542       0.00000000
Si      -0.49226588      -2.24414461      -3.02758404       0.00000000
Si       2.53229679      -0.21193290       2.85973901       0.00000000
Si      -2.70031904      -2.93248670      -0.48055632       0.00000000
Si       0.82328031      -3.60736253      -1.64138112       0.00000000
