10
Lattice="16.28999089631971 0.0 0.0 0.0 16.28999089631971 0.0 0.0 0.0 34.450931932916035" Properties=species:S:1:pos:R:3:initial_magmoms:R:1 pbc="T T T"
Si       1.78279389      -0.80460124      -1.27795803       0.00000000
Si      -1.04927148      -1.86646489       0.99704498       0.00000000
Si      -1.65651381       0.87366691      -1.45310667       0.00000000
Si       1.13596686       1.33754746       1.64558413       0.00000000
Si       3.05945748      -1.94338627       0.33024682       0.00000000
Si      -3.19202550      -0.98421478       1.45200424       0.00000000
Si      -1.51231473      -3.28033915      -0.88487268       0.00000000
Si       1.29114540       3.44264878       0.66338752       0.00000000
Si      -3.73910886       0.26974774      -0.51745329       0.00000000
Si      -0.90595206       0.40587838      -3.69624255       0.00000000
