10
Lattice="16.28999089631971 0.0 0.0 0.0 16.28999089631971 0.0 0.0 0.0 34.450931932916035" Properties=species:S:1:pos:R:3:initial_magmoms:R:1 pbc="T T T"
Si       0.12590541       1.57362214      -1.77580873       0.00000000
Si       1.60309890       0.30164682       1.72788746       0.00000000
Si      -0.73283823      -2.21483631      -0.50143359       0.00000000
Si      -1.87918182       1.04911510       1.11190445       0.00000000
Si      -2.18593881       1.67602109      -2.12786300       0.00000000
Si       2.11996431       2.56029116       1.16206503       0.00000000
Si       0.19124460      -3.37157292       1.33910847       0.00000000
Si       0.28224054       0.14069673       3.62520469       0.00000000
Si      -3.07012743      -1.98759081      -0.21617972       0.00000000
Si       0.66903030       3.57971935      -0.48706755       0.00000000
