10
Lattice="16.28999089631971 0.0 0.0 0.0 16.28999089631971 0.0 0.0 0.0 34.450931932916035" Properties=species:S:1:pos:R:3:initial_magmoms:R:1 pbc="T T T"
Si       0.42997455       0.69325516       2.17685225       0.00000000
Si      -1.62227223      -1.61590840       0.57057665       0.00000000
Si      -0.92372445       1.77590485      -1.27103339       0.00000000
Si       1.87918182      -1.04911510      -1.11190445       0.00000000
Si      -0.30675699       0.62690599      -3.23976745       0.00000000
Si       2.16142236      -0.90841837       2.51330024       0.00000000
Si      -1.19094561      -3.03670591      -1.32808417       0.00000000
Si       2.00508723       0.52450705      -2.88771318       0.00000000
Si      -3.56101029      -0.22284557       0.02501139       0.00000000
Si       3.48228072      -0.74746828       0.61598301       0.00000000
