10
Lattice="16.28999089631971 0.0 0.0 0.0 16.28999089631971 0.0 0.0 0.0 34.450931932916035" Properties=species:S:1:pos:R:3:initial_magmoms:R:1 pbc="T T T"
Si      -0.42997455      -0.69325516      -2.17685225       0.00000000
Si       1.00230741       2.06392671       0.48438037       0.00000000
Si       1.73144781      -1.60167352       0.33644799       0.00000000
Si      -2.07246267      -0.20660607       1.24119887       0.00000000
Si       0.58422456       1.83052359       2.76617022       0.00000000
Si      -2.05224678      -2.30916356      -1.60627560       0.00000000
Si      -1.44951678      -2.14354313       2.45066841       0.00000000
Si      -1.23123078      -3.33945719       0.42925885       0.00000000
Si      -1.87598898       1.73263698       2.55057617       0.00000000
Si       3.05230617      -1.44072344      -1.56086925       0.00000000
