10
Lattice="16.28999089631971 0.0 0.0 0.0 16.28999089631971 0.0 0.0 0.0 34.450931932916035" Properties=species:S:1:pos:R:3:initial_magmoms:R:1 pbc="T T T"
Si      -1.52414127       0.07363894      -1.79596254       0.00000000
Si       2.19121677       0.93933190      -0.22296656       0.00000000
Si       0.02311551      -2.30434172       0.90712800       0.00000000
Si      -1.06916157       1.50449553       1.71073088       0.00000000
Si       3.24017874      -0.10231912       1.57588986       0.00000000
Si      -0.20328291       0.23458903      -3.69327977       0.00000000
Si       1.70644266       3.23094231      -0.67231031       0.00000000
Si      -2.23249563      -2.11868459      -2.19528351       0.00000000
Si       2.02909869      -3.22782182      -0.09194959       0.00000000
Si      -1.62202788      -3.48767990      -0.37217363       0.00000000
