10
Lattice="16.28999089631971 0.0 0.0 0.0 16.28999089631971 0.0 0.0 0.0 34.450931932916035" Properties=species:S:1:pos:R:3:initial_magmoms:R:1 pbc="T T T"
Si       1.66316013       1.02516228      -1.45851547       0.00000000
Si      -1.11478986      -1.70258193      -1.45910114       0.00000000
Si      -0.16739604      -1.92251322       1.63690249       0.00000000
Si       1.68459777       0.34085196       1.92828864       0.00000000
Si      -1.80406863       1.84130757       0.17700899       0.00000000
Si       0.18731871       2.24314929      -2.85429576       0.00000000
Si      -2.54109339      -0.46975473      -2.84633759       0.00000000
Si       3.21862707       2.20258719       0.00485758       0.00000000
Si      -2.23871841      -1.16338293       3.03650684       0.00000000
Si       1.17735975       2.47461390       2.86921302       0.00000000
