10
Lattice="16.28999089631971 0.0 0.0 0.0 16.28999089631971 0.0 0.0 0.0 34.450931932916035" Properties=species:S:1:pos:R:3:initial_magmoms:R:1 pbc="T T T"
Si       0.65901195       1.74055392      -1.59904090       0.00000000
Si       0.56878164       1.01599101       2.29863637       0.00000000
Si       1.80406863      -1.84130757      -0.17700899       0.00000000
Si      -1.97547201      -0.98720658      -1.37872707       0.00000000
Si       1.99138734       0.40184172      -3.03130474       0.00000000
Si       1.49877774       3.50147034      -0.30006778       0.00000000
Si      -0.73702476      -2.31106230      -3.02334657       0.00000000
Si       3.46722876      -0.81614529      -1.63552446       0.00000000
Si       0.68927877      -3.54388950      -1.63611012       0.00000000
Si       2.98142838       0.63330633       2.69220403       0.00000000
