10
Lattice="16.28999089631971 0.0 0.0 0.0 16.28999089631971 0.0 0.0 0.0 34.450931932916035" Properties=species:S:1:pos:R:3:initial_magmoms:R:1 pbc="T T T"
Si       0.21638007      -2.34220878       0.32025604       0.00000000
Si      -2.30716899       0.56443221       0.01484836       0.00000000
Si       1.55619999       1.41402087       1.24633206       0.00000000
Si       0.54055107       0.75049659      -2.28595841       0.00000000
Si      -0.26148708       2.94322833      -1.63993418       0.00000000
Si      -1.90472454       2.89815390       0.09697943       0.00000000
Si       2.95319781       0.36781191      -1.89239075       0.00000000
Si       3.56707017       0.46542159       0.48606847       0.00000000
Si      -0.46288035      -3.27018492      -1.72509693       0.00000000
Si       1.35260757       0.82701072       3.51995704       0.00000000
