10
Lattice="16.28999089631971 0.0 0.0 0.0 16.28999089631971 0.0 0.0 0.0 34.450931932916035" Properties=species:S:1:pos:R:3:initial_magmoms:R:1 pbc="T T T"
Si       2.07795240       0.99025281      -0.47208138       0.00000000
Si      -1.00051551       2.13439725      -0.14097329       0.00000000
Si      -1.61674992      -1.32655986      -1.13274727       0.00000000
Si       0.47843730      -1.41780015       1.89893643       0.00000000
Si      -0.83621457       2.44951101       2.14309032       0.00000000
Si       3.63579768      -0.64884699       0.18972139       0.00000000
Si      -0.91844649      -3.29014017       1.54002642       0.00000000
Si      -2.84514950      -2.38242879       0.56296299       0.00000000
Si       2.55349008      -2.53544076       1.21208782       0.00000000
Si      -3.21158490       1.91436822      -0.84146448       0.00000000
