10
Lattice="16.28999089631971 0.0 0.0 0.0 16.28999089631971 0.0 0.0 0.0 34.450931932916035" Properties=species:S:1:pos:R:3:initial_magmoms:R:1 pbc="T T T"
Si      -1.39688379      -1.87234002      -0.35891001       0.00000000
Si      -0.47843730       1.41780015      -1.89893643       0.00000000
Si      -0.02638980       0.81344115       2.28206546       0.00000000
Si       2.07505278      -1.11764061      -0.68684861       0.00000000
Si       3.15736038       0.76895316      -1.70921504       0.00000000
Si      -2.09518722       0.09124029      -3.03168370       0.00000000
Si      -3.32358680      -0.96462864      -1.33597344       0.00000000
Si       1.59951510       2.40805296      -2.37101781       0.00000000
Si      -2.84726394       2.17735398       1.06935752       0.00000000
Si      -0.47315934      -3.64824487       0.91212338       0.00000000
