10
Lattice="16.28999089631971 0.0 0.0 0.0 16.28999089631971 0.0 0.0 0.0 34.450931932916035" Properties=species:S:1:pos:R:3:initial_magmoms:R:1 pbc="T T T"
Si       1.64305827      -0.59880411       1.61843678       0.00000000
Si       0.25019811      -1.33651305      -1.96835510       0.00000000
Si      -2.31666606      -0.09050724       0.64271695       0.00000000
Si       0.29916585       2.27255274      -0.78269116       0.00000000
Si       3.52168623       0.30255417       0.48754986       0.00000000
Si      -3.30217848       1.61399691      -0.64857361       0.00000000
Si      -1.74327435       3.29263254      -0.29875865       0.00000000
Si       1.38681657       0.95788458       3.42728398       0.00000000
Si      -1.20073590      -0.31708485      -3.61748768       0.00000000
Si      -0.26666730      -3.59515739      -1.40253267       0.00000000
