10
Lattice="16.28999089631971 0.0 0.0 0.0 16.28999089631971 0.0 0.0 0.0 34.450931932916035" Properties=species:S:1:pos:R:3:initial_magmoms:R:1 pbc="T T T"
Si       2.08259505       0.60391917      -0.93565338       0.00000000
Si      -0.71356390       2.21539113       0.51063200       0.00000000
Si       0.54708336      -1.25396252       1.96945753       0.00000000
Si      -0.96993104      -1.69190288      -1.71314245       0.00000000
Si       1.06945479       2.88181503       1.99691493       0.00000000
Si      -0.71070827      -3.15896399       1.73805049       0.00000000
Si      -0.14691951      -3.69604529      -0.51352588       0.00000000
Si       2.68983738      -2.13621263       1.51449827       0.00000000
Si       3.73910886      -0.26974774       0.51745329       0.00000000
Si      -0.17679537       3.39514551      -1.72216860       0.00000000
