10
Lattice="16.28999089631971 0.0 0.0 0.0 16.28999089631971 0.0 0.0 0.0 34.450931932916035" Properties=species:S:1:pos:R:3:initial_magmoms:R:1 pbc="T T T"
Si       0.83976579       1.76091642       1.29897311       0.00000000
Si       1.33237539      -1.33871220      -1.43226384       0.00000000
Si      -1.40716278       1.35430173      -1.40525430       0.00000000
Si      -0.65901195      -1.74055392       1.59904090       0.00000000
Si       2.60371215       2.69658144      -0.02511474       0.00000000
Si       2.80821681      -2.55669921      -0.03648356       0.00000000
Si      -2.63448396      -2.72776050       0.22031383       0.00000000
Si      -2.68889256       2.76271884       0.13835502       0.00000000
Si       2.67921630       0.00114030      -2.79552243       0.00000000
Si      -0.04035033      -2.71265967      -2.79545353       0.00000000
