10
Lattice="16.28999089631971 0.0 0.0 0.0 16.28999089631971 0.0 0.0 0.0 34.450931932916035" Properties=species:S:1:pos:R:3:initial_magmoms:R:1 pbc="T T T"
Si       2.31184422      -0.10239894       0.35205427       0.00000000
Si      -0.61696746       1.14899886       1.96873406       0.00000000
Si      -0.52072614       1.29919266      -1.93728034       0.00000000
Si      -1.29860622      -2.00865979       0.22151962       0.00000000
Si       0.30675699      -0.62690599       3.23976745       0.00000000
Si      -2.54367047       2.05671024       0.99167063       0.00000000
Si      -1.31527089       3.11257917      -0.70403964       0.00000000
Si       2.18593881      -1.67602109       2.12786300       0.00000000
Si      -1.04309757      -2.83658489      -1.96473775       0.00000000
Si       3.28489479      -0.51482264      -1.77115785       0.00000000
