10
Lattice="16.28999089631971 0.0 0.0 0.0 16.28999089631971 0.0 0.0 0.0 34.450931932916035" Properties=species:S:1:pos:R:3:initial_magmoms:R:1 pbc="T T T"
Si      -1.35526284      -1.35645201      -1.35757418       0.00000000
Si       1.35692442      -1.35672894       1.35674736       0.00000000
Si      -1.35790182       1.35767376       1.35685071       0.00000000
Si       1.35630540       1.35824391      -1.35850436       0.00000000
Si      -0.00138465      -2.71440270      -2.71218558       0.00000000
Si       0.00112401       2.71396287       2.71394258       0.00000000
Si       0.00244350      -2.71363707       2.71473495       0.00000000
Si       2.71564074       0.00285075       2.71321911       0.00000000
Si      -2.71490769      -2.71412577      -0.00013780       0.00000000
Si      -0.00011403       2.71601541      -2.71318466       0.00000000
