10
Lattice="16.28999089631971 0.0 0.0 0.0 16.28999089631971 0.0 0.0 0.0 34.450931932916035" Properties=species:S:1:pos:R:3:initial_magmoms:R:1 pbc="T T T"
Si      -0.56532720       2.04739725      -0.95659956       0.00000000
Si       2.19622595      -0.47873068      -0.75216762       0.00000000
Si       0.24057886       0.68017755       2.29109161       0.00000000
Si      -1.37217090      -1.96260521      -0.31395152       0.00000000
Si       2.61064354      -2.13368279       0.93799605       0.00000000
Si       2.17931692      -0.71288528       2.83665687       0.00000000
Si       0.95116170       3.58663935       0.01798340       0.00000000
Si      -0.97534650      -2.55534944      -2.54857802       0.00000000
Si      -2.74168749       2.52762645      -0.31271128       0.00000000
Si       3.49483216       1.52992911      -0.97368723       0.00000000
