10
Lattice="16.28999089631971 0.0 0.0 0.0 16.28999089631971 0.0 0.0 0.0 34.450931932916035" Properties=species:S:1:pos:R:3:initial_magmoms:R:1 pbc="T T T"
Si       1.89459216      -1.27330785       0.05346788       0.00000000
Si       0.28220796       1.41459102       1.80533319       0.00000000
Si      -1.76425587      -1.55183427       0.27019881       0.00000000
Si      -0.89026479       1.11185766      -1.88984138       0.00000000
Si       2.04703398      -1.77681546       2.38424698       0.00000000
Si      -2.40653799       2.62507064      -0.61295132       0.00000000
Si       1.12428693       3.41556407       0.54236132       0.00000000
Si       2.19390462      -2.31725250      -1.95057841       0.00000000
Si       1.55887155       0.27580599       3.41353805       0.00000000
Si      -1.93412799      -0.57135546      -3.26849954       0.00000000
