10
Lattice="16.28999089631971 0.0 0.0 0.0 16.28999089631971 0.0 0.0 0.0 34.450931932916035" Properties=species:S:1:pos:R:3:initial_magmoms:R:1 pbc="T T T"
Si      -1.46015415       1.22013729      -1.40432412       0.00000000
Si       1.26685701      -1.47084039      -1.41083535       0.00000000
Si       1.04386320       1.68321312       1.37865816       0.00000000
Si      -0.72672948      -1.89007983       1.39212849       0.00000000
Si       0.16987212      -0.98047881       3.53869835       0.00000000
Si      -0.09503586       2.57886064      -2.77033879       0.00000000
Si       2.62026279      -0.13551651      -2.77523082       0.00000000
Si       2.54593152      -2.87305101      -0.00354845       0.00000000
Si       1.93412799       0.57135546       3.26849954       0.00000000
Si      -2.86045884       2.57968440      -0.02101508       0.00000000
