10
Lattice="16.28999089631971 0.0 0.0 0.0 16.28999089631971 0.0 0.0 0.0 34.450931932916035" Properties=species:S:1:pos:R:3:initial_magmoms:R:1 pbc="T T T"
Si       0.01167993      -2.14182549       0.79330205       0.00000000
Si      -1.59257556       0.25347240      -1.69657154       0.00000000
Si       2.07751257       0.42212277      -1.25797648       0.00000000
Si      -1.19505069       0.94234392       2.07994173       0.00000000
Si      -0.78727941       2.24565795      -2.58895453       0.00000000
Si       1.90993734      -3.03349122      -0.30874942       0.00000000
Si      -1.00556541       3.44157201      -0.56754497       0.00000000
Si      -2.60828638       2.39184441       0.81304245       0.00000000
Si      -1.08331758      -1.52231679      -3.20683234       0.00000000
Si       1.41454215      -2.12392278       2.69944153       0.00000000
