10
Lattice="16.28999089631971 0.0 0.0 0.0 16.28999089631971 0.0 0.0 0.0 34.450931932916035" Properties=species:S:1:pos:R:3:initial_magmoms:R:1 pbc="T T T"
Si      -0.61046775       1.36899531      -1.82310989       0.00000000
Si       0.52489638      -2.15906031      -0.82809751       0.00000000
Si       1.64514339       1.18333818       1.27930162       0.00000000
Si      -2.07751257      -0.42212277       1.25797648       0.00000000
Si      -0.87615765      -1.96788087      -2.70133353       0.00000000
Si      -0.16757523      -3.45561399       0.94922706       0.00000000
Si      -2.86479198       1.82353518      -1.33097805       0.00000000
Si       3.65112657       0.25985808       0.28022404       0.00000000
Si      -3.67008813      -0.16865037      -0.43859506       0.00000000
Si       0.00689067       0.04904919      -3.70988513       0.00000000
