10
Lattice="16.28999089631971 0.0 0.0 0.0 16.28999089631971 0.0 0.0 0.0 34.450931932916035" Properties=species:S:1:pos:R:3:initial_magmoms:R:1 pbc="T T T"
Si      -1.73431485      -0.95807680       1.31794904       0.00000000
Si       0.99882135       1.83847311       1.13564839       0.00000000
Si       1.88836938      -1.62951476       0.18560243       0.00000000
Si      -1.74630429      -0.28492839      -1.84105990       0.00000000
Si      -0.34204113      -2.26604244       2.66341372       0.00000000
Si       2.38493745       0.49402683       2.64746293       0.00000000
Si       2.56303602      -1.89174304      -1.97590093       0.00000000
Si      -3.43557729      -1.48600475      -0.26975202       0.00000000
Si       0.96894549      -3.59348345       1.20543568       0.00000000
Si       0.77305824       2.99820708      -2.41525391       0.00000000
