10
Lattice="16.28999089631971 0.0 0.0 0.0 16.28999089631971 0.0 0.0 0.0 34.450931932916035" Properties=species:S:1:pos:R:3:initial_magmoms:R:1 pbc="T T T"
Si       1.26304515      -1.41472038       1.34003865       0.00000000
Si       1.37192751       1.33161790      -1.35388793       0.00000000
Si      -1.34319195      -1.38478146      -1.35385348       0.00000000
Si      -1.34534223       1.27092136       1.52400673       0.00000000
Si      -0.42241599      -2.23956453       2.82001706       0.00000000
Si      -2.69676063       2.68258018       0.02552815       0.00000000
Si      -2.20103964      -0.46742526       3.08435921       0.00000000
Si       0.01342296       2.69113243      -2.71383923       0.00000000
Si      -2.70161505      -0.02371335      -2.71187552       0.00000000
Si       0.09814725       2.37662140       2.99978212       0.00000000
