10
Lattice="16.28999089631971 0.0 0.0 0.0 16.28999089631971 0.0 0.0 0.0 34.450931932916035" Properties=species:S:1:pos:R:3:initial_magmoms:R:1 pbc="T T T"
Si      -2.19512637       0.26959950      -0.68512607       0.00000000
Si       0.82774377      -2.12493276       0.55087071       0.00000000
Si       0.88210350       0.56452995      -2.13609678       0.00000000
Si       0.06674013       0.48666375       2.89346649       0.00000000
Si      -0.95135229       2.53351854       1.85494256       0.00000000
Si       3.02630733      -1.34791605       0.47418289       0.00000000
Si      -2.41206030       2.43413325      -0.00861274       0.00000000
Si       2.95870383      -0.47345256      -1.83440980       0.00000000
Si       1.91845701      -1.39628106       2.78460148       0.00000000
Si      -3.50713926      -1.13371884       0.68574618       0.00000000
