10
Lattice="16.28999089631971 0.0 0.0 0.0 16.28999089631971 0.0 0.0 0.0 34.450931932916035" Properties=species:S:1:pos:R:3:initial_magmoms:R:1 pbc="T T T"
Si       1.77096409      -0.88356960       1.28687536       0.00000000
Si       1.41582580       0.48565377      -1.87003208       0.00000000
Si      -1.14412343       1.71062919       1.24107712       0.00000000
Si      -1.74471831      -1.54997721      -0.66225063       0.00000000
Si       0.13462870      -2.01267674       2.55950383       0.00000000
Si      -2.65663251       2.39405985      -0.36149383       0.00000000
Si       0.43316413       2.53609236      -2.52329102       0.00000000
Si      -1.08780548      -3.31240844       1.01292687       0.00000000
Si       1.21935211      -1.45358928      -3.17940938       0.00000000
Si      -2.65264146       0.55731348       2.55438786       0.00000000
