10
Lattice="16.28999089631971 0.0 0.0 0.0 16.28999089631971 0.0 0.0 0.0 34.450931932916035" Properties=species:S:1:pos:R:3:initial_magmoms:R:1 pbc="T T T"
Si       1.39005828      -1.36179513      -1.31094482       0.00000000
Si       1.37187864       1.34237745       1.36271771       0.00000000
Si      -1.34416935      -1.37077092       1.36795425       0.00000000
Si      -1.38478032       1.39817070      -1.38292319       0.00000000
Si      -2.61487080      -0.16268823      -2.62223622       0.00000000
Si      -2.70451467      -2.70803331       0.03188780       0.00000000
Si      -2.69804754      -0.01282023       2.72256565       0.00000000
Si       0.01352070       2.70187569       2.72163548       0.00000000
Si       2.72767905       2.71246419      -0.01173055       0.00000000
Si       0.01433520      -2.72748357       2.72194554       0.00000000
