10
Lattice="16.28999089631971 0.0 0.0 0.0 16.28999089631971 0.0 0.0 0.0 34.450931932916035" Properties=species:S:1:pos:R:3:initial_magmoms:R:1 pbc="T T T"
Si      -1.51250909       0.68343066      -1.60257096       0.00000000
Si      -1.50851804      -1.15331571       1.31331074       0.00000000
Si       1.11629522       1.53350802       1.36318538       0.00000000
Si       1.14412343      -1.71062919      -1.24107712       0.00000000
Si      -2.62115762      -2.42421264      -0.30628502       0.00000000
Si      -0.10550921      -2.38252653       2.69023258       0.00000000
Si      -2.43506066       2.75504625      -0.36237116       0.00000000
Si       2.59956651       0.32858559       2.69201369       0.00000000
Si       2.92505700       2.42492940       0.20640306       0.00000000
Si      -0.60059489      -3.26060640      -1.90332776       0.00000000
