10
Lattice="16.28999089631971 0.0 0.0 0.0 16.28999089631971 0.0 0.0 0.0 34.450931932916035" Properties=species:S:1:pos:R:3:initial_magmoms:R:1 pbc="T T T"
Si       1.35553977      -1.35760860      -1.35536932       0.00000000
Si       1.35581670       1.35808101       1.35657510       0.00000000
Si      -1.35909099      -1.35635427       1.35660956       0.00000000
Si      -1.35931905       1.35707103      -1.36036471       0.00000000
Si       2.71068858      -2.71270854      -0.00117133       0.00000000
Si       2.71386513       0.00037467       2.71418374       0.00000000
Si      -0.00159642      -2.71422351       2.71387368       0.00000000
Si      -2.71686249      -2.71278999      -0.00113688       0.00000000
Si      -0.00195480       2.71643895       2.71366697       0.00000000
Si       2.71376739       2.71679733      -0.00099908       0.00000000
