10
Lattice="16.28999089631971 0.0 0.0 0.0 16.28999089631971 0.0 0.0 0.0 34.450931932916035" Properties=species:S:1:pos:R:3:initial_magmoms:R:1 pbc="T T T"
Si       1.35166275       1.35871632      -1.37769354       0.00000000
Si      -1.36334268      -1.35961227      -1.38320569       0.00000000
Si      -1.43884683       1.33582887       1.38720200       0.00000000
Si       1.54135980      -1.28435247       1.43532998       0.00000000
Si       0.14325426       2.46298284       2.70867159       0.00000000
Si      -2.71018359      -2.69946477      -0.01994710       0.00000000
Si       2.71396287       2.71575477       0.00947401       0.00000000
Si       2.71884987      -2.72865645      -0.00382406       0.00000000
Si       2.70881523      -0.00045612      -2.74009085       0.00000000
Si      -2.71792134       2.73803949      -0.02008490       0.00000000
