10
Lattice="16.28999089631971 0.0 0.0 0.0 16.28999089631971 0.0 0.0 0.0 34.450931932916035" Properties=species:S:1:pos:R:3:initial_magmoms:R:1 pbc="T T T"
Si      -1.48327129       1.20492243      -1.32882831       0.00000000
Si      -1.34844710      -1.34571690       1.35335394       0.00000000
Si       1.36469475       1.36941885       1.34687716       0.00000000
Si       1.39435884      -1.25999892      -1.42165984       0.00000000
Si       0.32549049       2.09634381      -2.48561063       0.00000000
Si       2.28449331       0.61116822      -2.53820759       0.00000000
Si      -2.59956651      -0.32858559      -2.69201369       0.00000000
Si      -2.69500602       2.71423980       0.00197404       0.00000000
Si       0.00417024      -2.70192456       2.70827540       0.00000000
Si       2.72826549      -2.68473861      -0.01841059       0.00000000
