10
Lattice="16.28999089631971 0.0 0.0 0.0 16.28999089631971 0.0 0.0 0.0 34.450931932916035" Properties=species:S:1:pos:R:3:initial_magmoms:R:1 pbc="T T T"
Si      -1.58412105       1.68769191       0.20677461       0.00000000
Si       0.03761361      -1.34589609       1.89886753       0.00000000
Si       2.23326126       0.93854835       0.26075925       0.00000000
Si      -0.73151874      -1.46818512      -1.84863804       0.00000000
Si       1.99339101      -2.17093572       0.89803294       0.00000000
Si      -3.15343449      -0.24107571       0.16036918       0.00000000
Si       0.79697196       0.45027189       3.35762415       0.00000000
Si      -0.21761811       3.45783662      -0.86454662       0.00000000
Si       3.07188675       0.31218156      -1.82603822       0.00000000
Si       1.59280362       3.15220364       0.65629062       0.00000000
