10
Lattice="16.28999089631971 0.0 0.0 0.0 16.28999089631971 0.0 0.0 0.0 34.450931932916035" Properties=species:S:1:pos:R:3:initial_magmoms:R:1 pbc="T T T"
Si       1.63505988      -1.74261965      -0.34840247       0.00000000
Si      -0.30897243       0.18428877       2.40429743       0.00000000
Si       0.04072500       1.97617248      -1.67097449       0.00000000
Si      -2.25846189      -0.86787419      -1.58639740       0.00000000
Si      -0.47983824      -2.64001346      -1.85073955       0.00000000
Si      -1.40276448       0.87047244      -3.14674988       0.00000000
Si      -1.39090536       3.34129077      -0.36593800       0.00000000
Si      -3.67937343      -0.37486548       0.55803651       0.00000000
Si      -1.37889963       2.24018451       2.82635604       0.00000000
Si       3.16814436      -1.10722478      -2.11301464       0.00000000
