10
Lattice="16.28999089631971 0.0 0.0 0.0 16.28999089631971 0.0 0.0 0.0 34.450931932916035" Properties=species:S:1:pos:R:3:initial_magmoms:R:1 pbc="T T T"
Si      -2.15788743       0.91555664       0.45702632       0.00000000
Si       1.20278844       1.72464836       1.13853503       0.00000000
Si       1.10394072       0.32447399      -2.11301464       0.00000000
Si       0.30810906      -2.37745775       0.58831889       0.00000000
Si      -2.07298395      -1.14003773      -2.56253065       0.00000000
Si       1.74439836      -1.88918129      -2.50854601       0.00000000
Si      -3.49692543      -0.67710525      -0.67303378       0.00000000
Si       3.37914873       1.24441916       0.49464676       0.00000000
Si      -2.11950819       2.90557562      -0.87629439       0.00000000
Si      -0.70648101       0.63010697      -3.63385188       0.00000000
