10
Lattice="16.28999089631971 0.0 0.0 0.0 16.28999089631971 0.0 0.0 0.0 34.450931932916035" Properties=species:S:1:pos:R:3:initial_magmoms:R:1 pbc="T T T"
Si      -0.08229708      -2.03754410       1.06963313       0.00000000
Si       1.57844303       0.75976560      -1.52993229       0.00000000
Si      -2.22031071       0.68053593      -0.68019958       0.00000000
Si       1.05556237       1.22868954       1.82176630       0.00000000
Si      -2.28077919      -1.38136661       1.89097826       0.00000000
Si       0.65477655       3.06571284      -1.02739627       0.00000000
Si       0.02450016       3.24232902       1.23575562       0.00000000
Si      -3.08203542       0.78329976       1.52676280       0.00000000
Si      -1.58120514       2.67946065      -1.80447192       0.00000000
Si       3.51718109      -0.63329723      -0.98436703       0.00000000
