10
Lattice="16.28999089631971 0.0 0.0 0.0 16.28999089631971 0.0 0.0 0.0 34.450931932916035" Properties=species:S:1:pos:R:3:initial_magmoms:R:1 pbc="T T T"
Si      -1.35622395      -1.34729703       1.38176564       0.00000000
Si       1.36037790       1.36607940       1.37721811       0.00000000
Si       1.31999499      -1.48801005      -1.34946443       0.00000000
Si      -1.31927823       1.41185430      -1.47117619       0.00000000
Si      -2.70787041      -2.68416846       0.00720369       0.00000000
Si      -2.69545743       2.72582199       0.01692920       0.00000000
Si       2.72300382      -2.71722087       0.02745741       0.00000000
Si       2.73307352       2.70813105       0.03121256       0.00000000
Si       0.00500103      -2.70617625       2.73692826       0.00000000
Si      -2.70915732       0.00744453       2.73775508       0.00000000
