10
Lattice="16.28999089631971 0.0 0.0 0.0 16.28999089631971 0.0 0.0 0.0 34.450931932916035" Properties=species:S:1:pos:R:3:initial_magmoms:R:1 pbc="T T T"
Si      -1.37617920       1.31396769       1.48810539       0.00000000
Si       1.31927823      -1.41185430       1.47117619       0.00000000
Si      -1.90975815      -0.86319081      -1.35060617       0.00000000
Si       1.71273060       1.00849761      -1.55397014       0.00000000
Si       2.77855272       2.57639382       0.05156274       0.00000000
Si      -2.73074157       2.67768504       0.17566196       0.00000000
Si      -0.80190783      -0.81482580      -3.66102476       0.00000000
Si      -0.03406239       2.66717799       2.85431987       0.00000000
Si      -2.77470828      -2.75157648      -0.03343465       0.00000000
Si       2.67965613      -0.04577490       2.84839431       0.00000000
