10
Lattice="16.28999089631971 0.0 0.0 0.0 16.28999089631971 0.0 0.0 0.0 34.450931932916035" Properties=species:S:1:pos:R:3:initial_magmoms:R:1 pbc="T T T"
Si       1.35391077      -1.35483930      -1.36050251       0.00000000
Si      -1.36085031       1.35733167      -1.35902112       0.00000000
Si       1.35451350       1.35808101       1.37159572       0.00000000
Si      -1.35081567      -1.37086866       1.37724568       0.00000000
Si      -2.52830574       0.07343532       2.81639971       0.00000000
Si       2.70973972       2.71321353       0.00334174       0.00000000
Si       2.71381615      -2.71414206       0.00537435       0.00000000
Si       2.71172135       0.00100998      -2.71707762       0.00000000
Si      -2.71669959      -2.71256193       0.00013780       0.00000000
Si      -0.00283446      -2.71399545      -2.71693981       0.00000000
