10
Lattice="16.28999089631971 0.0 0.0 0.0 16.28999089631971 0.0 0.0 0.0 34.450931932916035" Properties=species:S:1:pos:R:3:initial_magmoms:R:1 pbc="T T T"
Si       1.39561317      -1.24657596      -1.54770898       0.00000000
Si      -1.23872418      -1.55924622       1.41069755       0.00000000
Si       0.97252929       1.83943422       1.35509371       0.00000000
Si      -1.31360931       1.45525086      -1.56572683       0.00000000
Si      -2.68221366      -2.66494626      -0.06507785       0.00000000
Si      -2.67035454      -0.19412793       2.71573403       0.00000000
Si       2.75851602      -2.63704149      -0.01984375       0.00000000
Si      -2.49109938       2.89955484      -0.12657279       0.00000000
Si       0.03505608      -2.60424972      -2.94297251       0.00000000
Si       2.71948518       2.84372901      -0.09463676       0.00000000
