10
Lattice="16.28999089631971 0.0 0.0 0.0 16.28999089631971 0.0 0.0 0.0 34.450931932916035" Properties=species:S:1:pos:R:3:initial_magmoms:R:1 pbc="T T T"
Si       1.74695589       1.00429479      -1.44973048       0.00000000
Si      -0.97252929      -1.83943422      -1.35509371       0.00000000
Si       1.17535608      -0.09545940       2.20355174       0.00000000
Si      -1.68518421       1.86548193      -0.07965060       0.00000000
Si      -1.25480241       2.39971248       2.25956899       0.00000000
Si      -2.28613860      -0.38418336      -2.92082054       0.00000000
Si       0.41919057       2.34476631      -2.92647050       0.00000000
Si       2.40571602       2.18900133       2.05551600       0.00000000
Si       2.62180287       2.83889088      -0.21683429       0.00000000
Si      -3.46362867       1.06012062      -1.48166651       0.00000000
