10
Lattice="16.28999089631971 0.0 0.0 0.0 16.28999089631971 0.0 0.0 0.0 34.450931932916035" Properties=species:S:1:pos:R:3:initial_magmoms:R:1 pbc="T T T"
Si       0.38558430       2.25973251       0.66559238       0.00000000
Si       1.00545138      -1.01064789       1.92560147       0.00000000
Si      -2.30532822      -0.42523416      -0.68822665       0.00000000
Si       1.47062862       0.71169381      -1.94330925       0.00000000
Si      -0.29077650       2.14778763       2.92509246       0.00000000
Si      -2.96539902       1.97376156      -1.07652332       0.00000000
Si       3.06739627       0.20315259       2.25922448       0.00000000
Si      -0.95952987       3.20686569      -1.88729201       0.00000000
Si       3.63641411      -0.18327879      -1.53589231       0.00000000
Si       1.49856597      -3.33187515       1.80367955       0.00000000
