10
Lattice="16.28999089631971 0.0 0.0 0.0 16.28999089631971 0.0 0.0 0.0 34.450931932916035" Properties=species:S:1:pos:R:3:initial_magmoms:R:1 pbc="T T T"
Si       0.11767896       0.34357239       2.31934139       0.00000000
Si      -1.72489923      -1.43944956      -0.70076680       0.00000000
Si       1.82902491      -1.03094523      -1.07707454       0.00000000
Si      -0.30341754       2.25686547      -0.75912671       0.00000000
Si       2.63368575       1.10486925      -1.59342539       0.00000000
Si      -1.25123490      -1.66311126      -3.03182151       0.00000000
Si      -1.28062206      -3.39840351       0.58029182       0.00000000
Si      -2.03903559       2.15357058      -2.31965145       0.00000000
Si      -0.10200798       2.65463469       2.75673066       0.00000000
Si       1.00232370      -2.27535462      -2.92609154       0.00000000
