10
Lattice="16.28999089631971 0.0 0.0 0.0 16.28999089631971 0.0 0.0 0.0 34.450931932916035" Properties=species:S:1:pos:R:3:initial_magmoms:R:1 pbc="T T T"
Si       0.02386485      -0.91512333      -2.19927982       0.00000000
Si       1.81830609       1.52003619       0.43980084       0.00000000
Si      -1.61888391       1.76832837      -0.42705399       0.00000000
Si       0.70965756      -1.58760711       1.73608678       0.00000000
Si       2.60394021       1.44300078      -1.81377368       0.00000000
Si       2.73022029      -2.42400087       0.13904404       0.00000000
Si      -1.68257781       0.33598125      -3.29010029       0.00000000
Si      -2.72673423       1.71996336       1.88336460       0.00000000
Si       2.22182568      -0.55454418      -3.00546653       0.00000000
Si       1.82229714      -0.31671018       3.35568254       0.00000000
