10
Lattice="16.28999089631971 0.0 0.0 0.0 16.28999089631971 0.0 0.0 0.0 34.450931932916035" Properties=species:S:1:pos:R:3:initial_magmoms:R:1 pbc="T T T"
Si      -1.34211681      -1.35321030      -1.36621448       0.00000000
Si       1.35514881      -1.35509994       1.35419799       0.00000000
Si      -1.35553977       1.35760860       1.35536932       0.00000000
Si       1.36016613       1.33581258      -1.37254312       0.00000000
Si      -2.69667918       0.01050705      -2.67865792       0.00000000
Si       0.00029322      -2.71365336       2.71197888       0.00000000
Si       2.71466334       0.00092853       2.71184107       0.00000000
Si      -2.71463076       0.00125433       2.71197888       0.00000000
Si       2.71371852      -2.71295289      -0.00592556       0.00000000
Si       2.71518462       2.71181259      -0.00850938       0.00000000
