10
Lattice="16.28999089631971 0.0 0.0 0.0 16.28999089631971 0.0 0.0 0.0 34.450931932916035" Properties=species:S:1:pos:R:3:initial_magmoms:R:1 pbc="T T T"
Si      -0.67636080      -0.11194488       2.25950008       0.00000000
Si      -0.38558430      -2.25973251      -0.66559238       0.00000000
Si       2.20452474       1.19353572      -0.22086505       0.00000000
Si      -1.34511417       0.94713318      -2.55288438       0.00000000
Si      -0.19106541       2.14115760       2.33921959       0.00000000
Si       1.08504432      -1.54803870      -2.60890163       0.00000000
Si       2.07061931       1.83954825       2.00673346       0.00000000
Si       0.61986708      -3.27038040       1.26000909       0.00000000
Si       2.31540426       0.73642203      -2.75693737       0.00000000
Si       2.68181197      -2.05657992       1.59363210       0.00000000
