10
Lattice="16.28999089631971 0.0 0.0 0.0 16.28999089631971 0.0 0.0 0.0 34.450931932916035" Properties=species:S:1:pos:R:3:initial_magmoms:R:1 pbc="T T T"
Si      -0.24918813       1.87691751      -1.25821764       0.00000000
Si       0.14613759       0.19170072       2.28568281       0.00000000
Si       2.26168472      -0.30160935      -0.33248613       0.00000000
Si      -0.48529539      -2.25310248      -0.07971950       0.00000000
Si       0.19106541      -2.14115760      -2.33921959       0.00000000
Si       1.14098418      -2.00839410       2.28992027       0.00000000
Si      -2.20496553       2.70195714      -0.25738306       0.00000000
Si       2.39559015      -0.94762188      -2.56008463       0.00000000
Si       2.77548598      -2.33394975       0.67785692       0.00000000
Si      -1.79611911      -0.85639788       3.12421896       0.00000000
