10
Lattice="16.28999089631971 0.0 0.0 0.0 16.28999089631971 0.0 0.0 0.0 34.450931932916035" Properties=species:S:1:pos:R:3:initial_magmoms:R:1 pbc="T T T"
Si       0.83862549      -0.62636679      -2.08679747       0.00000000
Si      -0.64045764       2.21365529       0.39553137       0.00000000
Si       1.22473107      -1.46914623       1.41121431       0.00000000
Si      -2.23326126      -0.93854835      -0.26075925       0.00000000
Si      -0.23987025      -3.10948407       0.63727370       0.00000000
Si       0.38959164      -2.94664923      -1.68616735       0.00000000
Si      -1.43628930      -0.48827646       3.09686490       0.00000000
Si      -2.19564765      -2.28444444       1.63810828       0.00000000
Si      -1.74439836       1.88918129       2.50854601       0.00000000
Si      -2.45087937       2.51928827      -1.12530587       0.00000000
