10
Lattice="16.28999089631971 0.0 0.0 0.0 16.28999089631971 0.0 0.0 0.0 34.450931932916035" Properties=species:S:1:pos:R:3:initial_magmoms:R:1 pbc="T T T"
Si      -1.46460132      -1.64033784      -0.77394062       0.00000000
Si      -0.39682440       0.59274423       2.23462650       0.00000000
Si       2.16928947      -0.65630781      -0.62125400       0.00000000
Si      -1.22473107       1.46914623      -1.41121431       0.00000000
Si      -2.66102037       0.98086977       1.68565059       0.00000000
Si      -3.42037872      -0.81529821       0.22689396       0.00000000
Si      -0.83513943      -1.47750300      -3.09738167       0.00000000
Si      -0.38610558       0.84277944      -3.49801178       0.00000000
Si       2.65879583      -2.34106848       0.93089915       0.00000000
Si       3.42708110       1.24869366      -0.38984696       0.00000000
