10
Lattice="16.28999089631971 0.0 0.0 0.0 16.28999089631971 0.0 0.0 0.0 34.450931932916035" Properties=species:S:1:pos:R:3:initial_magmoms:R:1 pbc="T T T"
Si      -0.80125623       2.16466637      -0.36421546       0.00000000
Si      -1.90589742      -1.01379186      -1.02333105       0.00000000
Si      -1.20159927      -0.91049697       1.89404439       0.00000000
Si       2.19848211      -0.65617749      -0.82134513       0.00000000
Si       2.28077919       1.38136661      -1.89097826       0.00000000
Si       0.06046848       2.06190253      -2.57117784       0.00000000
Si      -1.94401602       1.27960135       2.43923070       0.00000000
Si       0.37308987      -2.67374286       2.22201745       0.00000000
Si      -0.66362202      -1.95797655      -2.89825517       0.00000000
Si      -3.15509607      -1.84590135       0.77139125       0.00000000
