10
Lattice="16.28999089631971 0.0 0.0 0.0 16.28999089631971 0.0 0.0 0.0 34.450931932916035" Properties=species:S:1:pos:R:3:initial_magmoms:R:1 pbc="T T T"
Si       0.08229708       2.03754410      -1.06963313       0.00000000
Si      -0.48435057      -1.62667053      -1.61023746       0.00000000
Si       1.53139914      -0.83179998       1.68571949       0.00000000
Si      -2.19848211       0.65617749       0.82134513       0.00000000
Si       0.12973356      -2.64383442       1.96180942       0.00000000
Si      -0.21234015      -3.49205472      -0.15640732       0.00000000
Si       1.13785945       3.26623364       0.75213317       0.00000000
Si      -2.86210413      -1.30179906      -2.07691004       0.00000000
Si      -2.13801363       2.71808002      -1.74983271       0.00000000
Si       3.61519802      -1.61823231       0.87391728       0.00000000
