10
Lattice="16.28999089631971 0.0 0.0 0.0 16.28999089631971 0.0 0.0 0.0 34.450931932916035" Properties=species:S:1:pos:R:3:initial_magmoms:R:1 pbc="T T T"
Si       1.49744359      -1.37714031       1.13216161       0.00000000
Si      -0.09739139       1.86378777       1.42344440       0.00000000
Si       1.53236935       0.67709385      -1.71228118       0.00000000
Si      -2.06194489      -1.21380048      -0.33362301       0.00000000
Si       2.11367800       2.08381680       2.12393559       0.00000000
Si      -2.68181197       2.05657992      -1.59363210       0.00000000
Si       0.26904401      -2.43300924       2.82787188       0.00000000
Si      -0.47728723       3.25011564      -1.81449715       0.00000000
Si      -3.06739627      -0.20315259      -2.25922448       0.00000000
Si       3.11419351      -0.05058045       2.26490888       0.00000000
