10
Lattice="16.28999089631971 0.0 0.0 0.0 16.28999089631971 0.0 0.0 0.0 34.450931932916035" Properties=species:S:1:pos:R:3:initial_magmoms:R:1 pbc="T T T"
Si      -0.56671281       2.20133286      -0.37575652       0.00000000
Si       0.31048740       0.21704796       2.32818430       0.00000000
Si      -1.03728204      -1.38241827      -1.64258690       0.00000000
Si       2.19227562      -1.06196139      -0.13608126       0.00000000
Si      -0.39416913       1.99417293      -2.69475340       0.00000000
Si       2.26949022      -1.26812763       2.27558734       0.00000000
Si      -0.05623308      -0.27391635      -3.45818648       0.00000000
Si      -0.05462037      -3.43285686      -0.98932797       0.00000000
Si       1.38909717       3.39755643       0.27161130       0.00000000
Si       3.50428851       0.34135695      -1.50695351       0.00000000
