10
Lattice="16.28999089631971 0.0 0.0 0.0 16.28999089631971 0.0 0.0 0.0 34.450931932916035" Properties=species:S:1:pos:R:3:initial_magmoms:R:1 pbc="T T T"
Si       1.35533800      -1.35794845      -1.35536932       0.00000000
Si       1.35550090       1.35742254       1.35647175       0.00000000
Si      -1.35864346      -1.35723169       1.35650620       0.00000000
Si      -1.35800815       1.35645818      -1.36050251       0.00000000
Si       0.00181589       2.70509424      -2.71153791       0.00000000
Si       0.01482527      -2.70215038      -2.71957531       0.00000000
Si       2.71106185       2.71428180      -0.00148139       0.00000000
Si       2.71210441      -2.71369999      -0.00120578       0.00000000
Si       2.71340761       0.00032590       2.71349472       0.00000000
Si       2.70635404      -0.00270372      -2.72053649       0.00000000
