10
Lattice="16.28999089631971 0.0 0.0 0.0 16.28999089631971 0.0 0.0 0.0 34.450931932916035" Properties=species:S:1:pos:R:3:initial_magmoms:R:1 pbc="T T T"
Si      -1.35781058      -1.35584928       1.35657510       0.00000000
Si       1.35776404       1.35751086       1.35688516       0.00000000
Si      -1.35795719       1.35720135      -1.35743638       0.00000000
Si       1.35754739      -1.35773892      -1.35747083       0.00000000
Si      -2.71429517       2.71425609       0.00027561       0.00000000
Si      -2.71172135      -0.00100998       2.71707762       0.00000000
Si      -2.71455581      -2.71500543       0.00013780       0.00000000
Si       2.71490838       2.71511946       0.00024116       0.00000000
Si      -0.00066128       2.71494027      -2.71525172       0.00000000
Si       2.71539708      -2.71487511       0.00037896       0.00000000
