10
Lattice="16.28999089631971 0.0 0.0 0.0 16.28999089631971 0.0 0.0 0.0 34.450931932916035" Properties=species:S:1:pos:R:3:initial_magmoms:R:1 pbc="T T T"
Si       1.35714433       1.35760860      -1.35664401       0.00000000
Si      -1.35776404      -1.35751086      -1.35688516       0.00000000
Si       1.35750271      -1.35648459       1.36194945       0.00000000
Si      -1.35974567       1.35469269       1.36353420       0.00000000
Si      -2.71557462      -2.71336014      -0.00031006       0.00000000
Si       2.71517647       0.00057015      -2.71387368       0.00000000
Si       0.00009774       2.71507059      -2.71435599       0.00000000
Si      -0.00021666      -2.71524978      -2.71435599       0.00000000
Si      -2.71572123      -0.00030951      -2.71432154       0.00000000
Si       2.71615387      -2.71404432       0.00058567       0.00000000
