10
Lattice="16.28999089631971 0.0 0.0 0.0 16.28999089631971 0.0 0.0 0.0 34.450931932916035" Properties=species:S:1:pos:R:3:initial_magmoms:R:1 pbc="T T T"
Si      -1.63450180       0.32555565       1.61206336       0.00000000
Si      -0.51380126       2.03234040      -1.01034305       0.00000000
Si       2.21106939       0.22002903       0.70049119       0.00000000
Si       0.09739139      -1.86378777      -1.42344440       0.00000000
Si      -3.26078137       0.08084727      -0.75757642       0.00000000
Si      -0.37989583       1.38632787      -3.23794155       0.00000000
Si       2.83520445       1.98146673      -0.78909904       0.00000000
Si       1.59483498      -3.24092808      -0.29128279       0.00000000
Si       1.09872303       3.51013662      -0.23123478       0.00000000
Si      -2.77548598       2.33394975      -0.67785692       0.00000000
