10
Lattice="16.28999089631971 0.0 0.0 0.0 16.28999089631971 0.0 0.0 0.0 34.450931932916035" Properties=species:S:1:pos:R:3:initial_magmoms:R:1 pbc="T T T"
Si      -1.51364285       1.15774659       1.44001531       0.00000000
Si       1.18177923      -1.56154311       1.42506015       0.00000000
Si      -1.85271287      -1.12293486      -1.08776984       0.00000000
Si       1.37579313       1.34713413      -1.80571013       0.00000000
Si       2.52780564       2.62813086      -0.09340342       0.00000000
Si      -2.79463325       2.51618598      -0.01322228       0.00000000
Si      -0.17313012       2.50194852       2.80422130       0.00000000
Si       2.54430741      -0.21352932       2.79877805       0.00000000
Si       2.51376366      -3.00358278       0.09254904       0.00000000
Si      -3.70871402       0.50958378      -1.22055173       0.00000000
