10
Lattice="16.28999089631971 0.0 0.0 0.0 16.28999089631971 0.0 0.0 0.0 34.450931932916035" Properties=species:S:1:pos:R:3:initial_magmoms:R:1 pbc="T T T"
Si      -1.35841950      -1.35638685       1.35681626       0.00000000
Si      -1.35695340       1.35804843      -1.35695407       0.00000000
Si       1.35764382      -1.35705474      -1.35750528       0.00000000
Si       1.35772201       1.35830907       1.35722967       0.00000000
Si       2.71304512      -0.00143352       2.71514836       0.00000000
Si      -2.71215108      -0.00224802       2.71618189       0.00000000
Si       2.71379446       0.00158013      -2.71466605       0.00000000
Si       0.00169006       2.71528012      -2.71346027       0.00000000
Si       2.71469041      -2.71451673       0.00020671       0.00000000
Si      -2.71461087       0.00104256      -2.71494166       0.00000000
