10
Lattice="16.28999089631971 0.0 0.0 0.0 16.28999089631971 0.0 0.0 0.0 34.450931932916035" Properties=species:S:1:pos:R:3:initial_magmoms:R:1 pbc="T T T"
Si       1.35615064       1.35863487      -1.35716077       0.00000000
Si      -1.35764382       1.35705474       1.35750528       0.00000000
Si       1.35704659      -1.35746199       1.35771199       0.00000000
Si      -1.35852306      -1.35764118      -1.35778089       0.00000000
Si      -0.00061576       2.71438641      -2.71132431       0.00000000
Si       2.71442713       0.00096111       2.71442489       0.00000000
Si      -0.00009774      -2.71507059       2.71435599       0.00000000
Si       2.71507873      -2.71450044       0.00048231       0.00000000
Si       2.71452487       2.71507059       0.00010335       0.00000000
Si      -2.71459722       2.71510317       0.00055122       0.00000000
