10
Lattice="16.28999089631971 0.0 0.0 0.0 16.28999089631971 0.0 0.0 0.0 34.450931932916035" Properties=species:S:1:pos:R:3:initial_magmoms:R:1 pbc="T T T"
Si      -1.35667305       1.35214723      -1.35926228       0.00000000
Si       1.34864864       1.35947122       1.36598021       0.00000000
Si       1.35876799      -1.36114353      -1.35843546       0.00000000
Si      -1.36229310      -1.37785707       1.37876152       0.00000000
Si       2.66419483      -0.00374670       2.75218314       0.00000000
Si      -2.71304361       2.70952289       0.00137804       0.00000000
Si       0.00081573       2.71058174      -2.71525172       0.00000000
Si       2.71669750       2.71080980      -0.00017225       0.00000000
Si      -2.71411875      -0.00403663      -2.71573403       0.00000000
Si       2.71614364      -0.00384657      -2.71563068       0.00000000
