10
Lattice="16.28999089631971 0.0 0.0 0.0 16.28999089631971 0.0 0.0 0.0 34.450931932916035" Properties=species:S:1:pos:R:3:initial_magmoms:R:1 pbc="T T T"
Si      -1.31554619       1.36321792      -1.38620292       0.00000000
Si       1.40030469      -1.35954711      -1.38330904       0.00000000
Si       0.96021405       1.82722391       1.21598077       0.00000000
Si      -1.71167664      -0.93320523       1.48287229       0.00000000
Si       2.38804884       0.61674170       2.67656330       0.00000000
Si      -3.52359935       0.67487582       1.16082480       0.00000000
Si      -2.65377851       2.68047782       0.17232366       0.00000000
Si      -2.60293772      -2.74282875       0.08919351       0.00000000
Si      -2.66419483       0.00374670      -2.75218314       0.00000000
Si       2.86045884      -2.57968440       0.02101508       0.00000000
