10
Lattice="16.28999089631971 0.0 0.0 0.0 16.28999089631971 0.0 0.0 0.0 34.450931932916035" Properties=species:S:1:pos:R:3:initial_magmoms:R:1 pbc="T T T"
Si       2.33728920      -0.22724550      -0.28525388       0.00000000
Si      -0.41441760       1.65495211      -1.69016367       0.00000000
Si      -0.43132662       1.42079751       1.89866082       0.00000000
Si      -1.24427907      -2.05208388      -0.28194658       0.00000000
Si      -2.61064354       2.13368279      -0.93799605       0.00000000
Si       1.19094561       3.03670591       1.32808417       0.00000000
Si       3.07012743       1.98759081       0.21617972       0.00000000
Si       3.26137203      -1.38398211       1.55528819       0.00000000
Si      -0.92719422      -2.76273513      -2.55567491       0.00000000
Si      -2.37006468       2.81386034       1.35309556       0.00000000
