10
Lattice="16.28999089631971 0.0 0.0 0.0 16.28999089631971 0.0 0.0 0.0 34.450931932916035" Properties=species:S:1:pos:R:3:initial_magmoms:R:1 pbc="T T T"
Si      -0.80529615      -1.99218555       0.89238299       0.00000000
Si       2.25432423      -0.45453987      -0.49213184       0.00000000
Si      -0.21828600       1.19591406       2.02140956       0.00000000
Si      -0.82101600       1.03029363      -2.03553445       0.00000000
Si      -0.84123189       3.13285112       0.81194002       0.00000000
Si       2.96267859       1.73778366      -0.09281086       0.00000000
Si       0.78727941      -2.24565795       2.58895453       0.00000000
Si      -2.88909503      -1.20575322       1.70418520       0.00000000
Si       1.23123078       3.33945719      -0.42925885       0.00000000
Si       2.86479198      -1.82353518       1.33097805       0.00000000
