10
Lattice="10.86 0.0 0.0 0.0 10.86 0.0 0.0 0.0 10.86" Properties=species:S:1:pos:R:3:initial_magmoms:R:1 pbc="T T T"
Si      -1.82656512      -0.84039024       0.77788008       0.00000000
Si       0.88843488       1.87460976       0.77788008       0.00000000
Si       0.88843488      -0.84039024      -1.93711992       0.00000000
Si      -0.46906512      -2.19789024       2.13538008       0.00000000
Si       2.24593488       0.51710976       2.13538008       0.00000000
Si       2.24593488      -2.19789024      -0.57961992       0.00000000
Si       0.88843488      -0.84039024       3.49288008       0.00000000
Si       0.88843488      -3.55539024       0.77788008       0.00000000
Si       3.60343488      -0.84039024       0.77788008       0.00000000
Si      -3.09074514      -2.18968008      -0.62025804       0.00000000
