10
Lattice="10.86 0.0 0.0 0.0 10.86 0.0 0.0 0.0 10.86" Properties=species:S:1:pos:R:3:initial_magmoms:R:1 pbc="T T T"
Si       0.84080292      -0.91006800      -1.79394168       0.00000000
Si       0.84080292       1.80493200       0.92105832       0.00000000
Si      -1.87419708      -0.91006800       0.92105832       0.00000000
Si       2.19830292      -2.26756800      -0.43644168       0.00000000
Si       2.19830292       0.44743200       2.27855832       0.00000000
Si      -0.51669708      -2.26756800       2.27855832       0.00000000
Si       3.55580292      -0.91006800       0.92105832       0.00000000
Si       2.17142442       0.50220984      -3.08656404       0.00000000
Si       0.84080292      -3.62506800       0.92105832       0.00000000
Si       0.84080292      -0.91006800       3.63605832       0.00000000
