10
Lattice="10.86 0.0 0.0 0.0 10.86 0.0 0.0 0.0 10.86" Properties=species:S:1:pos:R:3:initial_magmoms:R:1 pbc="T T T"
Si       1.38599664      -1.13269800      -1.45616310       0.00000000
Si      -1.26472302      -1.39012344       1.46567646       0.00000000
Si       1.38599664       1.58230200       1.25883690       0.00000000
Si      -1.32900336       1.58230200      -1.45616310       0.00000000
Si      -2.64384528      -2.49780000       0.19141836       0.00000000
Si       2.53273662      -2.68956588       0.02570562       0.00000000
Si       0.02849664      -2.49019800      -2.81366310       0.00000000
Si      -2.73212622       0.24066846       2.72855328       0.00000000
Si      -2.68650336       0.22480200      -2.81366310       0.00000000
Si       2.93847708       0.07623720       2.61211236       0.00000000
