10
Lattice="10.86 0.0 0.0 0.0 10.86 0.0 0.0 0.0 10.86" Properties=species:S:1:pos:R:3:initial_magmoms:R:1 pbc="T T T"
Si      -1.35750000       1.35750000      -1.35750000       0.00000000
Si      -1.35750000      -1.35750000       1.35750000       0.00000000
Si       1.35750000       1.35750000       1.35750000       0.00000000
Si       1.35750000      -1.35750000      -1.35750000       0.00000000
Si       2.57310324      -2.40021204       0.10566780       0.00000000
Si      -2.52001956       2.56643520      -0.00422454       0.00000000
Si       2.75765808      -0.00760200      -2.42491854       0.00000000
Si       2.64710328      -0.18921378       2.56975836       0.00000000
Si       2.66937714       2.73086646       0.11221638       0.00000000
Si      -2.74187850      -2.66022216       0.06487764       0.00000000
