10
Lattice="10.86 0.0 0.0 0.0 10.86 0.0 0.0 0.0 10.86" Properties=species:S:1:pos:R:3:initial_magmoms:R:1 pbc="T T T"
Si      -1.28960328      -1.16828622       1.50274164       0.00000000
Si      -1.28960328       1.54671378      -1.21225836       0.00000000
Si       1.30073478      -0.21235644      -2.02794210       0.00000000
Si       1.42539672       1.54671378       1.50274164       0.00000000
Si      -0.07400004      -2.21099826      -2.46409056       0.00000000
Si      -2.64710328      -2.52578622       0.14524164       0.00000000
Si      -2.64710328       0.18921378      -2.56975836       0.00000000
Si       0.06789672      -2.52578622       2.86024164       0.00000000
Si       0.02227386       2.92008024      -2.45754198       0.00000000
Si      -2.64710328       0.18921378       2.86024164       0.00000000
