10
Lattice="10.86 0.0 0.0 0.0 10.86 0.0 0.0 0.0 10.86" Properties=species:S:1:pos:R:3:initial_magmoms:R:1 pbc="T T T"
Si       1.35820590      -1.30057188      -1.34761740       0.00000000
Si      -1.35679410       1.41442812      -1.34761740       0.00000000
Si       1.35820590       1.41442812       1.36738260       0.00000000
Si       0.07257738      -2.48173806       2.64536568       0.00000000
Si       0.00070590      -2.65807188      -2.70511740       0.00000000
Si       2.71570590      -2.65807188       0.00988260       0.00000000
Si      -2.71429410       0.05692812      -2.70511740       0.00000000
Si       2.71570590       0.05692812      -2.70511740       0.00000000
Si      -2.71101438      -2.71716114       0.01748460       0.00000000
Si       2.71570590       0.05692812       2.72488260       0.00000000
