10
Lattice="16.28999089631971 0.0 0.0 0.0 16.28999089631971 0.0 0.0 0.0 34.46413024517268" Properties=species:S:1:pos:R:3:initial_magmoms:R:1 pbc="T T T"
Si       1.35728280      -1.31929452       1.39622196       0.00000000
Si      -1.47087297      -1.34335485      -1.32007140       0.00000000
Si      -1.36976094       1.41204978       1.38402855       0.00000000
Si       1.44055728       1.16103717      -1.63400534       0.00000000
Si      -0.34415883       1.15248492      -3.35724727       0.00000000
Si       2.67563250       2.69474067      -0.19028691       0.00000000
Si      -0.01482390      -2.66686359       2.76291160       0.00000000
Si       2.75973777      -2.67511448      -0.04874609       0.00000000
Si       2.69881317       0.04825098       2.76342856       0.00000000
Si      -0.23253975      -2.64195944      -2.82039922       0.00000000
