10
Lattice="16.28999089631971 0.0 0.0 0.0 16.28999089631971 0.0 0.0 0.0 34.46413024517268" Properties=species:S:1:pos:R:3:initial_magmoms:R:1 pbc="T T T"
Si      -2.05943067      -0.53365877      -0.93446095       0.00000000
Si      -0.08495235       0.49686455       2.31826548       0.00000000
Si       0.98450244       1.57061990      -1.51880060       0.00000000
Si       1.04265774      -2.19008040      -0.19851350       0.00000000
Si      -0.67873914      -3.02934120       1.42095688       0.00000000
Si       3.23367903      -1.13566875      -0.23118551       0.00000000
Si      -2.62506834      -2.50491723       0.16336007       0.00000000
Si       3.25265688       0.79552541      -1.54516568       0.00000000
Si       0.47210049      -2.79562857      -2.44571391       0.00000000
Si      -3.70019205       0.67066256       0.23969816       0.00000000
