10
Lattice="16.28999089631971 0.0 0.0 0.0 16.28999089631971 0.0 0.0 0.0 34.46413024517268" Properties=species:S:1:pos:R:3:initial_magmoms:R:1 pbc="T T T"
Si       0.08495235      -0.49686455      -2.31826548       0.00000000
Si       2.23606314       0.19924299       0.84437166       0.00000000
Si      -1.10135061       2.15451540       0.11035421       0.00000000
Si      -0.64156536      -2.12585219       1.04919210       0.00000000
Si      -0.59378679      -3.52620575      -0.89730860       0.00000000
Si      -2.16911124       2.03097204       2.27515083       0.00000000
Si       2.27022327      -0.88489886       2.94296265       0.00000000
Si       1.12761009      -2.68694495      -2.51677898       0.00000000
Si      -1.97447832      -1.03052332      -3.25272643       0.00000000
Si       0.38952648       3.88097847      -0.78312887       0.00000000
