10
Lattice="16.28999089631971 0.0 0.0 0.0 16.28999089631971 0.0 0.0 0.0 34.46413024517268" Properties=species:S:1:pos:R:3:initial_magmoms:R:1 pbc="T T T"
Si       1.71541845      -0.46845153       1.59227817       0.00000000
Si      -1.83225685      -1.51821171      -0.28488066       0.00000000
Si      -1.03234617       2.13793218       0.42704528       0.00000000
Si       1.38202731       0.06281424      -2.08401266       0.00000000
Si       2.11045095       2.36281563      -1.84262575       0.00000000
Si      -1.80221646       1.81563453       2.63233728       0.00000000
Si       2.34360972       1.70113212       2.28400812       0.00000000
Si      -3.29913944      -0.43675119      -1.74684988       0.00000000
Si       3.35617983      -1.67277286       0.41811906       0.00000000
Si      -2.51155052      -2.09574760       2.00805367       0.00000000
