10
Lattice="16.28999089631971 0.0 0.0 0.0 16.28999089631971 0.0 0.0 0.0 34.46413024517268" Properties=species:S:1:pos:R:3:initial_magmoms:R:1 pbc="T T T"
Si      -1.25468838      -1.58640002       1.33831185       0.00000000
Si       0.44264817      -0.97617825      -2.21690642       0.00000000
Si       2.00736783       0.78402141       1.22609658       0.00000000
Si      -0.36424440       2.28420009      -1.26621285       0.00000000
Si      -1.36630746       2.20804434       0.80146380       0.00000000
Si       0.41840865       2.21659659       2.52470574       0.00000000
Si       2.13583077      -2.48129443      -1.50687601       0.00000000
Si       1.82534337       2.30355261      -2.15842076       0.00000000
Si       3.35213991       1.27905822      -0.65595616       0.00000000
Si      -3.49481750       0.95909004       1.05381030       0.00000000
