10
Lattice="16.28999089631971 0.0 0.0 0.0 16.28999089631971 0.0 0.0 0.0 34.46413024517268" Properties=species:S:1:pos:R:3:initial_magmoms:R:1 pbc="T T T"
Si      -1.46688259       1.08146052      -1.46196922       0.00000000
Si       1.83225685       1.51821171       0.28488066       0.00000000
Si      -0.67929367      -0.57753589       2.29293433       0.00000000
Si       0.29030409      -1.88479277      -1.73396029       0.00000000
Si       0.79991068       3.65614389       0.71192594       0.00000000
Si      -1.23264868       1.39395159       3.53195497       0.00000000
Si       1.10746588      -1.72236518       3.43600678       0.00000000
Si       3.21428416       1.58102595      -1.79913200       0.00000000
Si      -3.09656677      -0.07211420      -2.58253658       0.00000000
Si      -1.35474223      -3.56815250      -1.42357616       0.00000000
