10
Lattice="16.28999089631971 0.0 0.0 0.0 16.28999089631971 0.0 0.0 0.0 34.46413024517268" Properties=species:S:1:pos:R:3:initial_magmoms:R:1 pbc="T T T"
Si      -1.19676114       1.58115627       1.28882133       0.00000000
Si       0.90062523      -2.03322006       0.97857506       0.00000000
Si      -0.12691539       0.40431780      -2.43558145       0.00000000
Si      -2.13416919      -0.49324491      -1.22826782       0.00000000
Si       1.43575173       1.93321575       1.30181432       0.00000000
Si      -2.79197568      -1.57462398       0.79781060       0.00000000
Si       2.90453958       2.03538663      -0.43349007       0.00000000
Si      -1.09672425      -2.88666945       1.91486261       0.00000000
Si       3.51378558      -0.31255623      -0.95393319       0.00000000
Si      -3.08146527       0.33713784       2.09093995       0.00000000
