10
Lattice="16.28999089631971 0.0 0.0 0.0 16.28999089631971 0.0 0.0 0.0 34.46413024517268" Properties=species:S:1:pos:R:3:initial_magmoms:R:1 pbc="T T T"
Si      -2.18437497      -0.81234892       0.14812691       0.00000000
Si       1.33095816      -1.21580335      -1.48705912       0.00000000
Si       0.92276334      -0.74876905       2.09000942       0.00000000
Si       0.25583445       1.95977643      -1.41072103       0.00000000
Si       1.89659583       0.75545510      -2.58488014       0.00000000
Si      -0.53304138       0.66964101       3.22922188       0.00000000
Si      -2.41540464      -0.62126722       2.55038153       0.00000000
Si       3.22950879      -0.33987376       1.71703839       0.00000000
Si       3.27728736      -1.74022732      -0.22946231       0.00000000
Si      -2.07575325      -3.11534767      -0.49959231       0.00000000
