10
Lattice="16.28999089631971 0.0 0.0 0.0 16.28999089631971 0.0 0.0 0.0 34.46413024517268" Properties=species:S:1:pos:R:3:initial_magmoms:R:1 pbc="T T T"
Si       2.20880997      -0.70343478      -0.05138605       0.00000000
Si      -0.75292380       2.15430363       0.60236441       0.00000000
Si      -1.09042002      -1.48900374       1.47778827       0.00000000
Si      -0.84349620      -0.23985396      -2.20704967       0.00000000
Si       1.53303561      -2.83335228      -0.93842433       0.00000000
Si      -0.53841708      -3.40420275       0.10704565       0.00000000
Si      -3.07002969       1.54108287       0.33416439       0.00000000
Si       3.14639721       1.32835176      -0.99522125       0.00000000
Si      -3.00654756       0.68844798      -1.85103501       0.00000000
Si      -3.18314745      -0.34156872       1.83942059       0.00000000
