10
Lattice="16.28999089631971 0.0 0.0 0.0 16.28999089631971 0.0 0.0 0.0 34.46413024517268" Properties=species:S:1:pos:R:3:initial_magmoms:R:1 pbc="T T T"
Si      -0.30472074      -2.16179703      -0.86715247       0.00000000
Si       0.84349620       0.23985396       2.20704967       0.00000000
Si       1.47465225       0.92561409      -1.62291680       0.00000000
Si      -2.16305136       0.92830194       0.35601466       0.00000000
Si       1.95273117      -2.87520129      -1.02668701       0.00000000
Si      -1.53832986      -3.17900979       0.83847829       0.00000000
Si       2.79065619      -1.00299159      -2.17255106       0.00000000
Si       0.09057240       2.39415759       2.80941408       0.00000000
Si       2.37653181      -2.59349832       1.26862534       0.00000000
Si       3.05230617      -0.46358082       2.15566362       0.00000000
