10
Lattice="16.28999089631971 0.0 0.0 0.0 16.28999089631971 0.0 0.0 0.0 34.46413024517268" Properties=species:S:1:pos:R:3:initial_magmoms:R:1 pbc="T T T"
Si       1.35726651       1.35511623      -1.35785303       0.00000000
Si      -1.35710361       1.35710361       1.35633660       0.00000000
Si      -1.35785295      -1.35742941      -1.35688803       0.00000000
Si       1.35808101      -1.35858600       1.35664678       0.00000000
Si       0.00058644       2.71327869       2.71384499       0.00000000
Si      -0.00055386      -2.71494027       2.71263874       0.00000000
Si      -2.71319724       0.00102627       2.71443088       0.00000000
Si       2.71365336      -0.00110772       2.71398285       0.00000000
Si      -2.71471221       2.71494027      -0.00062035       0.00000000
Si      -2.71511946      -2.71480995      -0.00031018       0.00000000
