10
Lattice="16.28999089631971 0.0 0.0 0.0 16.28999089631971 0.0 0.0 0.0 34.46413024517268" Properties=species:S:1:pos:R:3:initial_magmoms:R:1 pbc="T T T"
Si       1.16051589       1.23025338       1.60289313       0.00000000
Si      -1.18874646       1.52480916      -1.32976474       0.00000000
Si       1.54412910      -1.20751254      -1.32962689       0.00000000
Si      -0.11725542      -0.05839965       3.13627207       0.00000000
Si      -2.25070785      -2.52995103       0.18472784       0.00000000
Si      -1.18873017      -2.13967521       2.41500635       0.00000000
Si      -2.52832203       0.15125265      -2.71095000       0.00000000
Si       0.19383471      -2.57258196      -2.71319017       0.00000000
Si      -0.52191531       2.46102804       2.91856204       0.00000000
Si       2.77407297       2.68470603       0.08147325       0.00000000
