10
Lattice="16.28999089631971 0.0 0.0 0.0 16.28999089631971 0.0 0.0 0.0 34.46413024517268" Properties=species:S:1:pos:R:3:initial_magmoms:R:1 pbc="T T T"
Si       1.34702010      -0.10013463       1.90755621       0.00000000
Si       1.27777131       1.28865303      -1.53337894       0.00000000
Si      -1.07147475      -2.08127556      -0.72126572       0.00000000
Si      -0.40465989       2.51942769      -0.21771003       0.00000000
Si      -2.08125927       1.12448241       1.03089164       0.00000000
Si      -0.72622449       0.34324659       2.98445749       0.00000000
Si       0.11725542       0.05839965      -3.13627207       0.00000000
Si      -2.99550294      -1.03912281       0.14605907       0.00000000
Si       3.15527526       1.47523869       2.05747526       0.00000000
Si       2.25652338      -2.15515071       2.59925169       0.00000000
