10
Lattice="16.28999089631971 0.0 0.0 0.0 16.28999089631971 0.0 0.0 0.0 34.46413024517268" Properties=species:S:1:pos:R:3:initial_magmoms:R:1 pbc="T T T"
Si       1.37722176       1.34359640       1.34610075       0.00000000
Si       1.35575154      -1.35853734      -1.36157515       0.00000000
Si      -1.35871632       1.35809776      -1.36088587       0.00000000
Si      -1.37034738      -1.38354249       1.36974316       0.00000000
Si       0.00605988       2.57995202       2.74810235       0.00000000
Si       2.64544713      -0.09282063       2.73107706       0.00000000
Si      -2.71187775      -2.71368615      -0.00234356       0.00000000
Si       2.71280628      -2.71472871      -0.00606569       0.00000000
Si       2.71314837       2.71574546      -0.00158535       0.00000000
Si       2.71319724       0.00038111      -2.71832533       0.00000000
