10
Lattice="16.28999089631971 0.0 0.0 0.0 16.28999089631971 0.0 0.0 0.0 34.46413024517268" Properties=species:S:1:pos:R:3:initial_magmoms:R:1 pbc="T T T"
Si      -0.48853710       0.24169473       2.25702269       0.00000000
Si      -1.95701544      -0.75451600      -1.23922742       0.00000000
Si       1.85736951      -1.69291774       0.08381681       0.00000000
Si       0.89539614       2.00509863      -1.28354832       0.00000000
Si       1.65206664       1.41515628       2.52922054       0.00000000
Si      -0.48101112      -1.95839587      -2.66190752       0.00000000
Si       2.26655802       0.76874302      -2.68554992       0.00000000
Si       0.88097949      -3.38627953      -1.24518972       0.00000000
Si      -2.16282330       1.92172641       2.39501714       0.00000000
Si       3.53478339      -0.66767401      -1.30057361       0.00000000
