10
Lattice="16.28999089631971 0.0 0.0 0.0 16.28999089631971 0.0 0.0 0.0 34.46413024517268" Properties=species:S:1:pos:R:3:initial_magmoms:R:1 pbc="T T T"
Si      -1.34340372      -1.34633592       1.36907800       0.00000000
Si       1.37013561       1.36798533       1.36545926       0.00000000
Si      -1.40450751       1.28671452      -1.44079789       0.00000000
Si       1.38003993      -1.35552348      -1.41255797       0.00000000
Si       0.40278654       2.18339757      -2.78345365       0.00000000
Si       2.21633595       0.33757767      -2.82277724       0.00000000
Si      -2.70207117      -2.70655092      -0.02869830       0.00000000
Si       2.73898431      -2.68644906      -0.00366699       0.00000000
Si       0.00975771      -2.70215262       2.72813727       0.00000000
Si      -2.70428661       0.01107720       2.72820620       0.00000000
