10
Lattice="16.28999089631971 0.0 0.0 0.0 16.28999089631971 0.0 0.0 0.0 34.46413024517268" Properties=species:S:1:pos:R:3:initial_magmoms:R:1 pbc="T T T"
Si       1.30810329      -1.96240743       0.04973177       0.00000000
Si       0.82968228       1.93881951       1.07607414       0.00000000
Si      -2.39927265      -0.43165242       0.08302414       0.00000000
Si       0.38735991       0.75347766      -2.36003603       0.00000000
Si      -0.36701370      -3.44492775      -0.79384722       0.00000000
Si       0.90828153      -1.31994612      -3.32854756       0.00000000
Si       2.77811289      -1.63527165      -1.83211419       0.00000000
Si      -0.52952274       3.69675486       0.36021929       0.00000000
Si      -2.63516814      -2.66983326      -0.76748215       0.00000000
Si      -3.36740364       0.96301593      -1.64514618       0.00000000
