10
Lattice="16.28999089631971 0.0 0.0 0.0 16.28999089631971 0.0 0.0 0.0 34.46413024517268" Properties=species:S:1:pos:R:3:initial_magmoms:R:1 pbc="T T T"
Si       0.26213868      -1.08638010       2.03279893       0.00000000
Si       1.25408565      -1.35394335      -1.42657454       0.00000000
Si       1.94281056       0.63708561       1.29991879       0.00000000
Si      -1.45575585       1.35964485      -1.39273075       0.00000000
Si       2.61218295       2.62009989       0.01240709       0.00000000
Si       2.55653631      -2.69356779       0.00675497       0.00000000
Si       2.61801477       0.00198738      -2.77629403       0.00000000
Si       0.87138468      -3.43432296       1.51235581       0.00000000
Si      -0.09829386      -2.70897813      -2.77557028       0.00000000
Si      -2.76931629      -2.71744893       0.03070756       0.00000000
