10
Lattice="16.28999089631971 0.0 0.0 0.0 16.28999089631971 0.0 0.0 0.0 34.46413024517268" Properties=species:S:1:pos:R:3:initial_magmoms:R:1 pbc="T T T"
Si       1.35920502      -1.75793535       0.71585485       0.00000000
Si       1.36982610       1.86647562       0.44531128       0.00000000
Si      -1.88304255       0.05209542       1.45576568       0.00000000
Si      -0.00057015       0.27429102      -2.39836016       0.00000000
Si      -2.52545499       2.17310229       0.70734220       0.00000000
Si       3.08517939       1.11091284      -0.95283034       0.00000000
Si       3.53641239      -0.96404220       0.16201597       0.00000000
Si       1.00623330      -1.86228909       3.03015695       0.00000000
Si       0.52952274      -3.69675486      -0.36021929       0.00000000
Si      -1.04796828      -1.70600283      -3.30063160       0.00000000
