10
Lattice="16.28999089631971 0.0 0.0 0.0 16.28999089631971 0.0 0.0 0.0 34.46413024517268" Properties=species:S:1:pos:R:3:initial_magmoms:R:1 pbc="T T T"
Si      -1.45259559       1.73270214      -0.77895871       0.00000000
Si       2.08451727       0.24977457      -1.15547954       0.00000000
Si       0.00057015      -0.27429102       2.39836016       0.00000000
Si      -1.04739813      -1.98029385      -0.90227143       0.00000000
Si       0.91745280      -3.21756822      -0.32189516       0.00000000
Si       3.08574954       0.83662182       1.44552982       0.00000000
Si       1.37039625       1.59218460       2.84367144       0.00000000
Si      -2.39347341       0.21248676      -2.75409912       0.00000000
Si       2.89457010      -1.99317924      -1.13766158       0.00000000
Si       1.13104728       0.25910874      -3.56293824       0.00000000
