10
Lattice="16.28999089631971 0.0 0.0 0.0 16.28999089631971 0.0 0.0 0.0 34.46413024517268" Properties=species:S:1:pos:R:3:initial_magmoms:R:1 pbc="T T T"
Si      -0.64241244       2.12100687      -0.74842347       0.00000000
Si       1.88304255      -0.05209542      -1.45576568       0.00000000
Si       0.44501022       0.43930872       2.30389393       0.00000000
Si      -1.86717609      -1.48825440       0.01609476       0.00000000
Si      -2.09487771       2.95435440       0.86635979       0.00000000
Si       0.76839930      -3.01682655       2.04496478       0.00000000
Si      -0.90253116      -3.61146042       0.47047010       0.00000000
Si      -0.39291480      -1.43290098       3.44975797       0.00000000
Si       2.78280441       0.25875036       2.52753180       0.00000000
Si       3.24224757      -1.81003077      -0.73991083       0.00000000
