10
Lattice="16.28999089631971 0.0 0.0 0.0 16.28999089631971 0.0 0.0 0.0 34.46413024517268" Properties=species:S:1:pos:R:3:initial_magmoms:R:1 pbc="T T T"
Si      -1.78668720      -1.05564087       1.23369145       0.00000000
Si       1.05562458       1.78214459       1.27277035       0.00000000
Si      -1.51557273       1.09518552      -1.62288823       0.00000000
Si       1.83084939      -2.00068893      -0.12459380       0.00000000
Si      -0.33032862      -2.27636460       2.64959244       0.00000000
Si       2.40591897       0.45829597       2.66356076       0.00000000
Si      -1.33543791      -2.25926010      -2.63902922       0.00000000
Si      -2.99851659      -2.41056162      -0.30787415       0.00000000
Si       3.58928973      -0.97495650       1.23602467       0.00000000
Si      -2.73851190       2.82756023      -0.27251393       0.00000000
