10
Lattice="16.28999089631971 0.0 0.0 0.0 16.28999089631971 0.0 0.0 0.0 34.46413024517268" Properties=species:S:1:pos:R:3:initial_magmoms:R:1 pbc="T T T"
Si       1.34368065       1.35127179      -1.35998980       0.00000000
Si       1.40247126      -1.36001952       1.29492149       0.00000000
Si      -1.37748240       1.25457435       1.43253684       0.00000000
Si      -1.37165058      -1.36353816      -1.35616428       0.00000000
Si      -2.04685479      -0.72843993       2.72004854       0.00000000
Si      -0.20300598      -2.40528366       2.64408955       0.00000000
Si       2.69873172       2.69105913       0.01126978       0.00000000
Si       2.69949735      -0.00500103      -2.71580945       0.00000000
Si      -2.73947301       2.68245801       0.01581904       0.00000000
Si      -0.01337409       2.70746316      -2.71549927       0.00000000
