10
Lattice="16.28999089631971 0.0 0.0 0.0 16.28999089631971 0.0 0.0 0.0 34.46413024517268" Properties=species:S:1:pos:R:3:initial_magmoms:R:1 pbc="T T T"
Si      -0.97639002      -1.69336179      -1.32900653       0.00000000
Si       0.39097629      -1.37432214       1.92285829       0.00000000
Si       1.67741388       1.02524373      -1.38439042       0.00000000
Si      -1.85736951       1.69291774      -0.08381681       0.00000000
Si       1.92301821       2.01495150       2.01494650       0.00000000
Si      -2.33838063      -0.26547813      -2.74572433       0.00000000
Si       1.81315845      -0.01741401       3.16056929       0.00000000
Si       0.40918851       2.46166076      -2.76936673       0.00000000
Si      -2.34590661       1.93461247       2.17320588       0.00000000
Si       3.28101777       1.95601265      -0.00561766       0.00000000
