10
Lattice="16.28999089631971 0.0 0.0 0.0 16.28999089631971 0.0 0.0 0.0 34.46413024517268" Properties=species:S:1:pos:R:3:initial_magmoms:R:1 pbc="T T T"
Si      -1.34365740      -1.34482095      -1.35371733       0.00000000
Si       1.31608050      -1.39214340       1.35027091       0.00000000
Si      -1.31138182       1.32325299       1.42654008       0.00000000
Si       1.36750803       1.37117817      -1.34927145       0.00000000
Si       0.54290823       2.24267688       2.51343596       0.00000000
Si       2.11891686       0.47008053       2.66314822       0.00000000
Si      -2.68442488       2.70884781       0.00537641       0.00000000
Si      -2.70379369      -2.70107748       0.02071295       0.00000000
Si       0.01152192      -2.69879688      -2.71029518       0.00000000
Si      -2.70359821       0.01272249      -2.70998500       0.00000000
