10
Lattice="16.28999089631971 0.0 0.0 0.0 16.28999089631971 0.0 0.0 0.0 34.46413024517268" Properties=species:S:1:pos:R:3:initial_magmoms:R:1 pbc="T T T"
Si       1.42836651      -1.23680685      -1.37777330       0.00000000
Si      -1.29785688       1.49012775      -1.36150623       0.00000000
Si       1.60653513       1.15224057       1.36081694       0.00000000
Si      -1.11897639      -1.74421917       1.37870384       0.00000000
Si       2.68924184      -2.41702549       0.27119839       0.00000000
Si       0.75404685      -3.22409141       1.63811549       0.00000000
Si       0.06287940      -2.58159752      -2.73466133       0.00000000
Si      -2.65487904       0.13357800      -2.73273134       0.00000000
Si      -2.72258028      -2.67498809      -0.00006893       0.00000000
Si      -2.60587872       2.89494477       0.04783624       0.00000000
