10
Lattice="16.28999089631971 0.0 0.0 0.0 16.28999089631971 0.0 0.0 0.0 34.46413024517268" Properties=species:S:1:pos:R:3:initial_magmoms:R:1 pbc="T T T"
Si       1.35803214       1.35628911      -1.35650892       0.00000000
Si      -1.35889551      -1.35645201      -1.35706035       0.00000000
Si       1.35725022      -1.35790182       1.35737053       0.00000000
Si      -1.35819504       1.35804843       1.35747392       0.00000000
Si       2.71204065       0.00250866      -2.71322463       0.00000000
Si      -2.71205694      -0.00063531      -2.71611962       0.00000000
Si       2.71435383      -0.00182448       2.71463766       0.00000000
Si       2.71464705       2.71469592       0.00010339       0.00000000
Si       2.71474479      -2.71477737      -0.00031018       0.00000000
Si      -2.71494027       2.71480995       0.00041357       0.00000000
