10
Lattice="16.28999089631971 0.0 0.0 0.0 16.28999089631971 0.0 0.0 0.0 34.46413024517268" Properties=species:S:1:pos:R:3:initial_magmoms:R:1 pbc="T T T"
Si       0.15483645      -0.42507126      -2.26019339       0.00000000
Si      -0.52092162       2.07342378       0.96851153       0.00000000
Si      -0.71071641      -2.27859633       0.29032600       0.00000000
Si       1.86983136      -0.31532553       1.49643337       0.00000000
Si       0.39982176      -0.64246131       3.37827933       0.00000000
Si      -1.27529523      -2.12498163       2.53470034       0.00000000
Si       1.45619568       3.29781276       0.15274511       0.00000000
Si       1.41760467      -3.37171886      -0.14013123       0.00000000
Si      -0.90828153       1.31994612       3.32854756       0.00000000
Si       3.04728885      -2.21814414       0.98043613       0.00000000
