10
Lattice="16.28999089631971 0.0 0.0 0.0 16.28999089631971 0.0 0.0 0.0 34.46413024517268" Properties=species:S:1:pos:R:3:initial_magmoms:R:1 pbc="T T T"
Si       1.77834413       0.78134985      -1.40089875       0.00000000
Si      -1.94061141       0.24392646      -1.42102581       0.00000000
Si       0.51603040      -2.29703661       0.62414575       0.00000000
Si      -0.16226469       1.34402274       2.16975946       0.00000000
Si       2.16625139      -2.70990666      -1.05935903       0.00000000
Si       1.12802616       0.06968862      -3.52085751       0.00000000
Si      -1.01488329       0.89930574      -3.47109128       0.00000000
Si       3.47981183      -0.78343497      -1.16157969       0.00000000
Si       1.83346949      -1.77049494       2.91477098       0.00000000
Si      -2.53346967       1.58889402       2.47345755       0.00000000
