10
Lattice="16.28999089631971 0.0 0.0 0.0 16.28999089631971 0.0 0.0 0.0 34.46413024517268" Properties=species:S:1:pos:R:3:initial_magmoms:R:1 pbc="T T T"
Si      -1.49406993       1.20805011      -1.35894899       0.00000000
Si       1.33367859       1.36603053       1.38069242       0.00000000
Si      -1.38098475      -1.34987085       1.37938278       0.00000000
Si       1.33393923      -1.42053687      -1.61166770       0.00000000
Si      -2.34833382      -0.53445861      -2.76953013       0.00000000
Si      -0.53478441      -2.38027851      -2.80885373       0.00000000
Si       2.67132039      -2.71021617      -0.00129585       0.00000000
Si       2.69337487       2.71059084      -0.01419923       0.00000000
Si       2.68856606       0.00900837       2.74157829       0.00000000
Si      -0.02443500      -2.70726768       2.74261221       0.00000000
