10
Lattice="16.28999089631971 0.0 0.0 0.0 16.28999089631971 0.0 0.0 0.0 34.46413024517268" Properties=species:S:1:pos:R:3:initial_magmoms:R:1 pbc="T T T"
Si       0.96648570      -0.73028070      -1.97810433       0.00000000
Si       1.80054999      -0.10143783       1.48388842       0.00000000
Si      -2.17720737      -0.79389315       0.55383888       0.00000000
Si      -0.45123300       2.07495504      -1.11484631       0.00000000
Si       0.85921605      -2.26641141       1.56736059       0.00000000
Si      -2.16658629       2.83051782       0.28329531       0.00000000
Si      -3.53641239       0.96404220      -0.16201597       0.00000000
Si      -0.64241244      -0.75484602      -3.69803771       0.00000000
Si       2.45410383       1.04032827      -2.77560474       0.00000000
Si       1.65421692       1.34250777       3.28812111       0.00000000
