10
Lattice="16.28999089631971 0.0 0.0 0.0 16.28999089631971 0.0 0.0 0.0 34.46413024517268" Properties=species:S:1:pos:R:3:initial_magmoms:R:1 pbc="T T T"
Si       0.89261055       0.72073476      -2.04155282       0.00000000
Si      -0.13704777      -2.34571113      -0.03422290       0.00000000
Si       1.38571767       1.53792261       1.13769604       0.00000000
Si      -2.25246717       0.55337130       0.56566009       0.00000000
Si       0.91056213       3.48434955      -0.17738698       0.00000000
Si      -2.61485451      -1.22922711       2.19322955       0.00000000
Si      -0.12282660       2.80559412      -2.30041305       0.00000000
Si       3.20674256       1.00393641      -1.54723353       0.00000000
Si      -1.39693266      -2.87106363      -1.93305968       0.00000000
Si       2.00586168      -3.17532825      -0.08398913       0.00000000
