10
Lattice="16.28999089631971 0.0 0.0 0.0 16.28999089631971 0.0 0.0 0.0 34.46413024517268" Properties=species:S:1:pos:R:3:initial_magmoms:R:1 pbc="T T T"
Si       1.35705474      -1.35619137       1.35550946       0.00000000
Si      -1.35741312      -1.35624024      -1.35664678       0.00000000
Si       1.35744570       1.35891845      -1.35675017       0.00000000
Si      -1.35575154       1.35853734       1.36157515       0.00000000
Si       0.02147022       2.70213374       2.70767591       0.00000000
Si       0.01337409      -2.70746316       2.71549927       0.00000000
Si       2.71287144      -2.71246419      -0.00031018       0.00000000
Si      -0.00055386      -2.71368594      -2.71374160       0.00000000
Si       2.71463076       0.00193851      -2.71391392       0.00000000
Si      -2.71520091       0.00166158      -2.71384499       0.00000000
