10
Lattice="16.28999089631971 0.0 0.0 0.0 16.28999089631971 0.0 0.0 0.0 34.46413024517268" Properties=species:S:1:pos:R:3:initial_magmoms:R:1 pbc="T T T"
Si      -1.34368065      -1.35127179       1.35998980       0.00000000
Si       1.35505107       1.33978734       1.37125958       0.00000000
Si       1.35581670      -1.35627282      -1.35581964       0.00000000
Si      -1.35705474       1.35619137      -1.35550946       0.00000000
Si      -0.06735915       2.62190808       2.73714275       0.00000000
Si       0.05879061      -2.71129131       2.65491129       0.00000000
Si      -2.71446786      -0.00004887      -2.71215625       0.00000000
Si       2.71520261       0.00073305      -2.71212178       0.00000000
Si       0.00039096       2.71510982      -2.71225964       0.00000000
Si       0.00017919      -2.71503801      -2.71243196       0.00000000
