10
Lattice="16.28999089631971 0.0 0.0 0.0 16.28999089631971 0.0 0.0 0.0 34.46413024517268" Properties=species:S:1:pos:R:3:initial_magmoms:R:1 pbc="T T T"
Si      -1.35505107      -1.33978734      -1.37125958       0.00000000
Si      -1.42241022       1.28212074       1.36588317       0.00000000
Si       1.36304946       1.37551131      -1.36870923       0.00000000
Si       1.42603037      -1.25103942       1.48151039       0.00000000
Si       0.18119367       2.21288966       2.74465594       0.00000000
Si       2.05421691       0.73301742       3.00406759       0.00000000
Si      -2.69873172      -2.69105913      -0.01126978       0.00000000
Si      -2.69063559       2.71853777      -0.01909314       0.00000000
Si       0.00076563      -2.69606016      -2.72707922       0.00000000
Si       2.74060909      -2.68920207       0.03087988       0.00000000
