10
Lattice="16.28999089631971 0.0 0.0 0.0 16.28999089631971 0.0 0.0 0.0 34.46413024517268" Properties=species:S:1:pos:R:3:initial_magmoms:R:1 pbc="T T T"
Si      -1.42218216      -1.35690813      -1.23771100       0.00000000
Si      -0.83162079      -0.07757298       2.17758282       0.00000000
Si       0.10985976       2.03236551      -1.14562279       0.00000000
Si       1.85168430      -1.46367279       0.01333763       0.00000000
Si       0.42912747      -3.07752309      -1.25418486       0.00000000
Si       3.49673062       0.21968694      -0.29704650       0.00000000
Si       1.73954394       3.18594023      -0.02505544       0.00000000
Si      -1.81315845       0.01741401      -3.16056929       0.00000000
Si      -2.15782227      -1.99928799       2.18047781       0.00000000
Si      -2.01846132       3.12548804      -0.71516557       0.00000000
