10
Lattice="16.28999089631971 0.0 0.0 0.0 16.28999089631971 0.0 0.0 0.0 34.46413024517268" Properties=species:S:1:pos:R:3:initial_magmoms:R:1 pbc="T T T"
Si      -2.06371494      -1.19979108       0.33481921       0.00000000
Si       0.55938231       2.00898054      -1.27162372       0.00000000
Si       0.05576067       1.10526021       2.36313780       0.00000000
Si       0.83028501      -1.75575249      -1.93243933       0.00000000
Si      -3.11052663       0.84668904      -0.15129762       0.00000000
Si      -1.69559352      -2.40730362       2.35173017       0.00000000
Si      -0.84132963      -0.66479490       3.76231132       0.00000000
Si       2.27017440       1.55323521      -2.80376195       0.00000000
Si      -2.25868995      -3.09448098      -1.02985772       0.00000000
Si       1.59685983       3.72775670      -0.04532036       0.00000000
