10
Lattice="16.28999089631971 0.0 0.0 0.0 16.28999089631971 0.0 0.0 0.0 34.46413024517268" Properties=species:S:1:pos:R:3:initial_magmoms:R:1 pbc="T T T"
Si      -0.46426500      -1.95043428       1.14165942       0.00000000
Si      -1.04330934       0.25151760      -2.05599330       0.00000000
Si       2.25170154       0.68009121      -0.04504464       0.00000000
Si      -1.13044455       1.81620468       0.98205594       0.00000000
Si       0.49339152       2.06827614      -2.63040728       0.00000000
Si       1.70191404       2.86120818      -0.76427698       0.00000000
Si      -3.29824349       0.08905743      -1.31649605       0.00000000
Si       3.12137577       0.48713616       2.10265776       0.00000000
Si      -3.44457656       1.53300303       0.48773664       0.00000000
Si      -0.45866124      -3.80666349      -0.29649508       0.00000000
