10
Lattice="16.28999089631971 0.0 0.0 0.0 16.28999089631971 0.0 0.0 0.0 34.46413024517268" Properties=species:S:1:pos:R:3:initial_magmoms:R:1 pbc="T T T"
Si      -1.35638615      -1.35786924       1.35764624       0.00000000
Si      -1.35488747       1.35702216      -1.36088587       0.00000000
Si       1.35869814       1.35720135       1.35764624       0.00000000
Si       1.35791134      -1.35591444      -1.36129944       0.00000000
Si      -2.71405991       2.71419093       0.00003446       0.00000000
Si      -2.71405991      -0.00026064       2.71474106       0.00000000
Si      -2.71300106      -2.71627605       0.00103392       0.00000000
Si       2.71612104       2.71362078       0.00034464       0.00000000
Si      -2.68856606      -0.00900837      -2.74157829       0.00000000
Si       0.00096351       2.71551042       2.71505123       0.00000000
