10
Lattice="16.28999089631971 0.0 0.0 0.0 16.28999089631971 0.0 0.0 0.0 34.46413024517268" Properties=species:S:1:pos:R:3:initial_magmoms:R:1 pbc="T T T"
Si       1.52594946       1.79652636       0.06265582       0.00000000
Si      -2.18157961       0.38301048       0.80990751       0.00000000
Si       0.18329508      -0.51992793      -2.31299247       0.00000000
Si      -1.24150325      -2.40209082      -2.38836556       0.00000000
Si      -3.00655475       1.79424576      -0.98484754       0.00000000
Si       3.61867689       0.64909134      -0.29897650       0.00000000
Si      -0.51000732      -0.27746757       3.72340332       0.00000000
Si      -3.18211208      -1.83941793       1.18229265       0.00000000
Si      -0.21076002       1.32322041      -3.69372969       0.00000000
Si       2.32727085      -1.28076867      -3.14533614       0.00000000
