10
Lattice="10.86 0.0 0.0 0.0 10.86 0.0 0.0 0.0 10.86" Properties=species:S:1:pos:R:3:initial_magmoms:R:1 pbc="T T T"
Si       1.35778236       1.24292700       1.35152700       0.00000000
Si      -1.35721764       1.24292700      -1.36347300       0.00000000
Si      -1.42957782      -1.35202656       1.30670778       0.00000000
Si       1.35778236      -1.47207300      -1.36347300       0.00000000
Si       0.01765836      -2.61151506       2.55029724       0.00000000
Si       2.62867386      -0.04209336       2.65170792       0.00000000
Si       0.00028236       2.60042700       2.70902700       0.00000000
Si      -2.71471764       2.60042700      -0.00597300       0.00000000
Si       2.71528236       2.60042700      -0.00597300       0.00000000
Si       0.00028236       2.60042700      -2.72097300       0.00000000
