10
Lattice="10.86 0.0 0.0 0.0 10.86 0.0 0.0 0.0 10.86" Properties=species:S:1:pos:R:3:initial_magmoms:R:1 pbc="T T T"
Si       1.35750000       1.35750000       1.35750000       0.00000000
Si      -1.35750000       1.35750000      -1.35750000       0.00000000
Si      -1.35750000      -1.35750000       1.35750000       0.00000000
Si       1.35750000      -1.35750000      -1.35750000       0.00000000
Si      -2.43338934       2.65719222       0.34902954       0.00000000
Si      -0.14607786       2.82845442       2.35408962       0.00000000
Si       2.80349814       2.44862592       0.19003914       0.00000000
Si       2.58375690      -2.68051950      -0.18920292       0.00000000
Si      -0.18263262      -2.65770264       2.74263870       0.00000000
Si      -2.71500000       0.00000000       2.71500000       0.00000000
