10
Lattice="10.86 0.0 0.0 0.0 10.86 0.0 0.0 0.0 10.86" Properties=species:S:1:pos:R:3:initial_magmoms:R:1 pbc="T T T"
Si      -1.40315544      -1.23507522       1.29161238       0.00000000
Si       1.31184456      -1.23507522      -1.42338762       0.00000000
Si       1.12734402       1.31908818       1.64836338       0.00000000
Si      -1.40315544       1.47992478      -1.42338762       0.00000000
Si       2.76316410      -2.43953610      -0.18826896       0.00000000
Si       2.78120256       2.56608768       0.14527422       0.00000000
Si      -2.76065544      -2.59257522      -0.06588762       0.00000000
Si      -0.04565544      -2.59257522      -2.78088762       0.00000000
Si      -2.76065544       0.12242478       2.64911238       0.00000000
Si       2.66934456       0.12242478      -2.78088762       0.00000000
