10
Lattice="10.86 0.0 0.0 0.0 10.86 0.0 0.0 0.0 10.86" Properties=species:S:1:pos:R:3:initial_magmoms:R:1 pbc="T T T"
Si       1.14391638      -1.57863132      -0.98450244       0.00000000
Si       1.32841692       1.29720528       1.37374656       0.00000000
Si      -1.38658308       1.29720528      -1.34125344       0.00000000
Si      -1.38658308      -1.41779472       1.37374656       0.00000000
Si      -0.26375682      -2.56644606       2.68817580       0.00000000
Si       2.50997406       0.00811242       2.76077490       0.00000000
Si       2.79777492      -0.33163182      -2.48759160       0.00000000
Si       2.68591692       2.65470528       0.01624656       0.00000000
Si      -0.02908308       2.65470528      -2.69875344       0.00000000
Si      -0.02908308       2.65470528       2.73124656       0.00000000
