10
Lattice="10.86 0.0 0.0 0.0 10.86 0.0 0.0 0.0 10.86" Properties=species:S:1:pos:R:3:initial_magmoms:R:1 pbc="T T T"
Si      -1.45131954       1.20446088      -1.23511866       0.00000000
Si       1.26368046      -1.51053912      -1.23511866       0.00000000
Si       1.10035692       1.27429068       1.66404522       0.00000000
Si      -1.45131954      -1.51053912       1.47988134       0.00000000
Si      -0.09381954       2.56196088      -2.59261866       0.00000000
Si       2.62118046      -0.15303912      -2.59261866       0.00000000
Si      -2.76316410       2.43953610       0.18826896       0.00000000
Si       2.60785524      -0.19832532       2.63899086       0.00000000
Si      -2.80881954      -0.15303912      -2.59261866       0.00000000
Si      -0.09381954      -2.86803912      -2.59261866       0.00000000
