10
Lattice="10.86 0.0 0.0 0.0 10.86 0.0 0.0 0.0 10.86" Properties=species:S:1:pos:R:3:initial_magmoms:R:1 pbc="T T T"
Si       1.21636344      -1.26646062      -1.18219788       0.00000000
Si      -1.49863656       1.44853938      -1.18219788       0.00000000
Si       1.27900392       1.81814862       0.94371228       0.00000000
Si      -1.49863656      -1.26646062       1.53280212       0.00000000
Si      -0.14113656      -2.62396062      -2.53969788       0.00000000
Si       2.64245520      -0.05040126      -2.54609442       0.00000000
Si       2.57386344      -2.62396062       0.17530212       0.00000000
Si      -0.19990002       2.76823572      -2.52357078       0.00000000
Si      -2.85613656       0.09103938      -2.53969788       0.00000000
Si       2.69612532       0.19390530       2.76130704       0.00000000
