10
Lattice="10.86 0.0 0.0 0.0 10.86 0.0 0.0 0.0 10.86" Properties=species:S:1:pos:R:3:initial_magmoms:R:1 pbc="T T T"
Si       1.13107986       1.41430866       1.48959018       0.00000000
Si      -1.58392014       1.41430866      -1.22540982       0.00000000
Si      -1.58392014      -1.30069134       1.48959018       0.00000000
Si       1.62158262      -1.74466986      -0.95033688       0.00000000
Si       2.38219530      -0.05704758      -2.34498894       0.00000000
Si       2.48857986       2.77180866       0.13209018       0.00000000
Si      -0.28518360      -2.69599500      -2.56678272       0.00000000
Si      -0.22642014       2.77180866      -2.58290982       0.00000000
Si       2.64547428       0.11674500       2.83198392       0.00000000
Si      -2.94142014       0.05680866      -2.58290982       0.00000000
