10
Lattice="16.28999089631971 0.0 0.0 0.0 16.28999089631971 0.0 0.0 0.0 34.49183129400761" Properties=species:S:1:pos:R:3:initial_magmoms:R:1 pbc="T T T"
Si      -0.14369409       2.08583676      -1.17517184       0.00000000
Si      -1.37595928      -1.47963699      -1.40219720       0.00000000
Si       2.21436486      -1.17048537       0.00738126       0.00000000
Si      -0.44593875       0.43924356       2.46413230       0.00000000
Si       1.13862213       3.40914744       0.96580631       0.00000000
Si       1.67889627       2.33701227      -2.68429378       0.00000000
Si       0.06204861      -3.19653783      -2.32081866       0.00000000
Si       2.31337548      -2.60244153      -1.93354416       0.00000000
Si      -2.85122502      -2.87775882       0.18470386       0.00000000
Si      -2.27274985       2.03191686       2.86492798       0.00000000
