10
Lattice="16.28999089631971 0.0 0.0 0.0 16.28999089631971 0.0 0.0 0.0 34.49183129400761" Properties=species:S:1:pos:R:3:initial_magmoms:R:1 pbc="T T T"
Si      -1.35571896       1.35360527      -1.35832357       0.00000000
Si       1.35808101       1.35663195       1.35739229       0.00000000
Si      -1.35687555      -1.35847352       1.35728881       0.00000000
Si       1.35653346      -1.36078670      -1.36073800       0.00000000
Si      -2.71231758       2.71435947       0.00075882       0.00000000
Si       2.71596654       2.71229064      -0.00006898       0.00000000
Si       0.00081450       2.71429431       2.71478457       0.00000000
Si      -2.71464705      -0.00073215       2.71509500       0.00000000
Si      -2.71373481      -2.71644050       0.00096577       0.00000000
Si       2.71560816      -0.00119914       2.71478457       0.00000000
