10
Lattice="16.28999089631971 0.0 0.0 0.0 16.28999089631971 0.0 0.0 0.0 34.49183129400761" Properties=species:S:1:pos:R:3:initial_magmoms:R:1 pbc="T T T"
Si       1.27301463       0.20325033      -1.96603548       0.00000000
Si      -2.28376026       0.19899864      -0.53310604       0.00000000
Si       0.38116971      -1.67275168       1.63263725       0.00000000
Si       0.28281069       1.91454741       1.45200343       0.00000000
Si       0.53053272       2.33608374      -2.50110756       0.00000000
Si      -2.96116362       1.67094675       1.17648253       0.00000000
Si      -0.38317338      -0.58968171       3.56073170       0.00000000
Si       3.44639385       0.32557194      -1.09290878       0.00000000
Si      -0.91953792      -3.52504916       0.87598953       0.00000000
Si       2.73935898      -1.77277554       2.04764320       0.00000000
