10
Lattice="16.28999089631971 0.0 0.0 0.0 16.28999089631971 0.0 0.0 0.0 34.49183129400761" Properties=species:S:1:pos:R:3:initial_magmoms:R:1 pbc="T T T"
Si       1.35563751       1.35635427      -1.35801314       0.00000000
Si      -1.35980775       1.35526284       1.35949629       0.00000000
Si      -1.35925389      -1.35870003      -1.35787517       0.00000000
Si       1.35790182      -1.36223496       1.35594363       0.00000000
Si       2.71195920      -2.71511946      -0.00117272       0.00000000
Si       0.00799839       2.70210375       2.72561502       0.00000000
Si       2.71261080      -0.00117288      -2.71530195       0.00000000
Si      -0.00221544       2.71360449      -2.71547441       0.00000000
Si       2.71542897       2.71427238      -0.00203502       0.00000000
Si      -2.71728440       2.71298547      -0.00020695       0.00000000
