10
Lattice="16.28999089631971 0.0 0.0 0.0 16.28999089631971 0.0 0.0 0.0 34.49183129400761" Properties=species:S:1:pos:R:3:initial_magmoms:R:1 pbc="T T T"
Si      -0.37783026      -2.32341012      -0.11147766       0.00000000
Si       2.26595529       0.09629019      -0.78306848       0.00000000
Si      -0.55461260       1.03873185       2.19440603       0.00000000
Si      -1.50789688      -0.06431292      -2.03384646       0.00000000
Si       3.17835819      -0.75826692       1.21790724       0.00000000
Si       2.27528946       2.36490075      -1.57551875       0.00000000
Si       0.48913983      -3.28773644       1.83441458       0.00000000
Si       0.71938269       3.79003140      -0.02335098       0.00000000
Si      -3.70673153       0.27085383      -1.03558332       0.00000000
Si       1.02830625      -3.26304080      -1.79978476       0.00000000
