10
Lattice="16.28999089631971 0.0 0.0 0.0 16.28999089631971 0.0 0.0 0.0 34.49183129400761" Properties=species:S:1:pos:R:3:initial_magmoms:R:1 pbc="T T T"
Si      -1.35759231       1.35736425       1.35742678       0.00000000
Si       1.35785295      -1.35725022       1.35746127       0.00000000
Si      -1.35778779      -1.35786924      -1.35708186       0.00000000
Si       1.35739683       1.35786924      -1.35756475       0.00000000
Si      -0.00040725       2.71401174       2.71488805       0.00000000
Si       0.00221544      -2.71360449       2.71547441       0.00000000
Si      -2.71461284       2.71477737      -0.00003449       0.00000000
Si      -2.71473339      -2.71482624       0.00024144       0.00000000
Si       2.71482624      -2.71477737       0.00017246       0.00000000
Si      -2.71506896      -0.00061902       2.71526746       0.00000000
