10
Lattice="16.28999089631971 0.0 0.0 0.0 16.28999089631971 0.0 0.0 0.0 34.49183129400761" Properties=species:S:1:pos:R:3:initial_magmoms:R:1 pbc="T T T"
Si       0.42876909       1.58591295      -1.68182263       0.00000000
Si      -2.02691583       0.31182318       1.18417421       0.00000000
Si       1.89095949       0.05305653       1.49111719       0.00000000
Si      -0.55850265      -2.19831921      -0.91541371       0.00000000
Si      -0.94309326      -3.20210901       1.17230902       0.00000000
Si      -1.42949637       1.24815609      -3.15248616       0.00000000
Si      -2.28599199      -1.71473427       2.43778052       0.00000000
Si       3.72529494      -0.83118096       0.25023838       0.00000000
Si       0.97813305       3.69049950      -0.67493653       0.00000000
Si      -3.57796003       1.59839109      -0.16521596       0.00000000
