10
Lattice="16.28999089631971 0.0 0.0 0.0 16.28999089631971 0.0 0.0 0.0 34.49183129400761" Properties=species:S:1:pos:R:3:initial_magmoms:R:1 pbc="T T T"
Si      -1.53621216       1.23206157       1.35687491       0.00000000
Si       0.42054264       1.52761104      -1.79743932       0.00000000
Si      -0.60313725      -2.08292085      -1.07987086       0.00000000
Si       1.66363254      -0.40949802       1.72748984       0.00000000
Si      -1.92538026      -0.20417886       3.22585032       0.00000000
Si       3.71807847      -0.06628401       0.73267589       0.00000000
Si      -3.59743473       1.45886724       0.17646031       0.00000000
Si      -1.51596369       1.55452212      -3.24592458       0.00000000
Si      -0.50533209      -3.89091537       0.40424449       0.00000000
Si       1.23119820      -2.96715834      -2.32074967       0.00000000
