10
Lattice="16.28999089631971 0.0 0.0 0.0 16.28999089631971 0.0 0.0 0.0 34.49183129400761" Properties=species:S:1:pos:R:3:initial_magmoms:R:1 pbc="T T T"
Si       1.60324551       1.08665703      -1.42842277       0.00000000
Si       1.16766720      -1.43145117       1.56498839       0.00000000
Si      -1.88576298      -0.97639002      -1.34619420       0.00000000
Si      -1.53575604       1.28187844       1.57750548       0.00000000
Si      -0.30120210       1.99351386      -2.84452019       0.00000000
Si       2.64899835       2.64437755       0.06086432       0.00000000
Si       2.65092057      -2.76205095       0.03815833       0.00000000
Si      -3.71257408       0.61628328      -0.94539851       0.00000000
Si       2.51620227      -0.07571592       2.95864541       0.00000000
Si      -2.99193380       2.51895432       0.16520907       0.00000000
