10
Lattice="16.28999089631971 0.0 0.0 0.0 16.28999089631971 0.0 0.0 0.0 34.49183129400761" Properties=species:S:1:pos:R:3:initial_magmoms:R:1 pbc="T T T"
Si       1.34853507       1.35573525       1.39365702       0.00000000
Si      -1.36822968      -1.35830907       1.39413990       0.00000000
Si      -1.16766720       1.43145117      -1.56498839       0.00000000
Si       1.48325337      -1.33059978      -1.52683005       0.00000000
Si       2.70141957      -2.71134018       0.01752531       0.00000000
Si      -2.70342324       2.71332961       0.01251709       0.00000000
Si      -2.72059290      -2.69816157       0.02591028       0.00000000
Si       2.70433548       2.72347934       0.02862134       0.00000000
Si       2.70837540       0.00083079       2.75460197       0.00000000
Si      -0.00755856      -2.71433754       2.75422256       0.00000000
