10
Lattice="16.28999089631971 0.0 0.0 0.0 16.28999089631971 0.0 0.0 0.0 34.49183129400761" Properties=species:S:1:pos:R:3:initial_magmoms:R:1 pbc="T T T"
Si       0.93861351       1.50080717      -1.64653747       0.00000000
Si      -0.53559891       1.46417343       1.96141357       0.00000000
Si      -1.82267181      -1.10708469      -1.54785629       0.00000000
Si       2.02421169      -1.43532819       1.29572086       0.00000000
Si       2.36219661       2.83128738      -0.32349907       0.00000000
Si       2.09670219       0.10129122      -3.08339898       0.00000000
Si       0.84567906       3.41719307       1.35787517       0.00000000
Si      -2.22987294       0.21550041       3.25254702       0.00000000
Si       2.53495206      -3.00317553      -0.48426558       0.00000000
Si      -0.62622018      -2.59674003      -3.04887264       0.00000000
