10
Lattice="16.28999089631971 0.0 0.0 0.0 16.28999089631971 0.0 0.0 0.0 34.49183129400761" Properties=species:S:1:pos:R:3:initial_magmoms:R:1 pbc="T T T"
Si       1.38072411      -0.99535158       1.54023359       0.00000000
Si      -1.22495913      -1.41059997      -1.47304346       0.00000000
Si       1.49679036       1.31898501      -1.31589859       0.00000000
Si      -1.61500689       1.47810573       1.41192390       0.00000000
Si       0.77050071       0.26906193       3.39982722       0.00000000
Si      -2.35921554      -2.93690781      -0.14548663       0.00000000
Si       0.00180819       2.53188954      -2.81629409       0.00000000
Si       2.69324199      -0.17067033      -2.81691494       0.00000000
Si      -2.73906087      -0.18270864      -2.82005370       0.00000000
Si      -2.94225093       2.72288979      -0.06284415       0.00000000
