10
Lattice="16.28999089631971 0.0 0.0 0.0 16.28999089631971 0.0 0.0 0.0 34.49183129400761" Properties=species:S:1:pos:R:3:initial_magmoms:R:1 pbc="T T T"
Si      -1.93546377       0.93506229       0.88830312       0.00000000
Si       1.53844389       1.54592100      -0.88057695       0.00000000
Si       1.08499545      -1.18275174       1.77674421       0.00000000
Si      -0.97598277      -1.64669094      -1.48932362       0.00000000
Si      -2.57588883      -1.15997832       1.93147465       0.00000000
Si      -0.63938250      -1.18688940       3.37995991       0.00000000
Si       2.59589295      -2.13729687      -1.40761242       0.00000000
Si       1.76798628       3.03857274       0.96459909       0.00000000
Si       0.83103435      -2.03823738      -2.96898951       0.00000000
Si       3.43323153       0.10122606      -1.41899473       0.00000000
