10
Lattice="16.28999089631971 0.0 0.0 0.0 16.28999089631971 0.0 0.0 0.0 34.49183129400761" Properties=species:S:1:pos:R:3:initial_magmoms:R:1 pbc="T T T"
Si       0.26834517      -0.91720845      -2.16046604       0.00000000
Si      -2.27647863      -0.15363099       0.62899339       0.00000000
Si       1.28314701      -1.12008411       1.64574416       0.00000000
Si       0.41273973       2.37583853       0.01248605       0.00000000
Si      -0.58187880      -2.32428978       0.41555782       0.00000000
Si      -1.73731221      -0.12893535      -3.00520596       0.00000000
Si      -3.14344872       0.81069533      -1.31689885       0.00000000
Si      -2.41093629       0.89550432       2.73696283       0.00000000
Si       1.22289030       0.20753460       3.60274278       0.00000000
Si      -0.49966317       3.23039564      -1.98848968       0.00000000
