10
Lattice="16.28999089631971 0.0 0.0 0.0 16.28999089631971 0.0 0.0 0.0 34.49183129400761" Properties=species:S:1:pos:R:3:initial_magmoms:R:1 pbc="T T T"
Si       1.52293581       1.24844931      -1.37110422       0.00000000
Si       1.46859237      -1.19578374       1.48530876       0.00000000
Si      -1.24805835       1.52344080       1.48333928       0.00000000
Si      -1.22662071      -1.68471180      -1.51593550       0.00000000
Si      -2.68674065      -2.66687663       0.08142146       0.00000000
Si       0.10914300      -2.54715490       2.87727223       0.00000000
Si      -2.54230862       2.89344609      -0.05385558       0.00000000
Si      -2.60585103       0.17104500       2.87334016       0.00000000
Si       2.95419150      -2.54145340      -0.02292328       0.00000000
Si       2.70612738       2.82883995       0.01904640       0.00000000
