10
Lattice="16.28999089631971 0.0 0.0 0.0 16.28999089631971 0.0 0.0 0.0 34.49183129400761" Properties=species:S:1:pos:R:3:initial_magmoms:R:1 pbc="T T T"
Si      -2.19851469      -0.46015992       0.63699550       0.00000000
Si       1.72693548      -1.12099635       1.11453517       0.00000000
Si       0.42116166       2.31150932      -0.16004219       0.00000000
Si       0.06025671      -1.32761871      -1.95699862       0.00000000
Si      -0.58016835      -3.42265932      -0.91382709       0.00000000
Si      -2.41973289      -2.79409338       0.31622129       0.00000000
Si       1.35633798      -3.44957040       0.53465818       0.00000000
Si       2.21511420       2.51946746      -1.70393191       0.00000000
Si      -3.63382659       0.68796972      -0.86577994       0.00000000
Si      -1.22289030      -0.20753460      -3.60274278       0.00000000
