10
Lattice="16.28999089631971 0.0 0.0 0.0 16.28999089631971 0.0 0.0 0.0 34.49183129400761" Properties=species:S:1:pos:R:3:initial_magmoms:R:1 pbc="T T T"
Si       0.09901062      -1.43195616      -1.94092542       0.00000000
Si       1.99940202       1.24043463      -0.73671144       0.00000000
Si      -2.21436486       1.17048537      -0.00738126       0.00000000
Si       0.42738444      -1.41832143       2.21448028       0.00000000
Si       1.11641886      -3.34417410       0.83021884       0.00000000
Si       1.28342394       2.06495298      -2.84461190       0.00000000
Si      -2.15231625      -2.02605246      -2.32819991       0.00000000
Si       0.48817872       0.00428427      -3.80990083       0.00000000
Si      -3.59032414      -0.30915162      -1.40957846       0.00000000
Si       2.78405874       2.45698812       1.08966654       0.00000000
