10
Lattice="16.28999089631971 0.0 0.0 0.0 16.28999089631971 0.0 0.0 0.0 34.49183129400761" Properties=species:S:1:pos:R:3:initial_magmoms:R:1 pbc="T T T"
Si      -1.35609363       1.35868374      -1.36173826       0.00000000
Si       1.35915615      -1.35836446      -1.36122088       0.00000000
Si       1.36559070       1.34832330       1.36953342       0.00000000
Si      -1.35348723      -1.35666704       1.38674485       0.00000000
Si      -2.71015101       2.71156824      -0.00462191       0.00000000
Si      -2.71482624      -2.71396056      -0.00134518       0.00000000
Si      -2.71249677       0.00043983      -2.71864766       0.00000000
Si       2.71524978       2.71604799      -0.00120721       0.00000000
Si       2.71753038      -2.71576196      -0.00420801       0.00000000
Si       0.00213399       2.71503801      -2.71833724       0.00000000
