10
Lattice="16.28999089631971 0.0 0.0 0.0 16.28999089631971 0.0 0.0 0.0 34.49183129400761" Properties=species:S:1:pos:R:3:initial_magmoms:R:1 pbc="T T T"
Si       0.51810345      -0.56480688       2.27356482       0.00000000
Si      -2.33922771      -0.04481379      -0.61398943       0.00000000
Si       0.78693732       2.16003771       0.76623646       0.00000000
Si       1.56787992      -1.10713356      -1.49511825       0.00000000
Si       1.87784604       1.33696917       2.80808503       0.00000000
Si      -1.16877492       2.93905809       1.84731453       0.00000000
Si       1.68173073      -3.33744633      -0.53472716       0.00000000
Si      -1.46676789      -0.27513810       3.49416243       0.00000000
Si      -2.86161543       1.94202864      -1.67533817       0.00000000
Si      -2.83845105      -1.82713527      -2.08765375       0.00000000
