10
Lattice="16.28999089631971 0.0 0.0 0.0 16.28999089631971 0.0 0.0 0.0 34.49183129400761" Properties=species:S:1:pos:R:3:initial_magmoms:R:1 pbc="T T T"
Si       0.52238772      -1.98684243       1.06134873       0.00000000
Si      -2.28824001       0.04401558      -0.51427349       0.00000000
Si      -0.09216882       1.45702647       1.88480717       0.00000000
Si       1.37660274       0.45879156      -1.91926453       0.00000000
Si      -0.55170972       0.96777261      -3.23926765       0.00000000
Si      -0.11927538       3.52543293       0.80897186       0.00000000
Si      -2.38604517       1.85201010      -1.99838884       0.00000000
Si      -0.98233587      -2.03919849       2.92994474       0.00000000
Si       0.02316438      -3.76916391      -0.41231558       0.00000000
Si      -3.51818388       0.00329058       1.42823855       0.00000000
