10
Lattice="16.28999089631971 0.0 0.0 0.0 16.28999089631971 0.0 0.0 0.0 34.49183129400761" Properties=species:S:1:pos:R:3:initial_magmoms:R:1 pbc="T T T"
Si       0.69157566      -1.88952597      -1.29537594       0.00000000
Si      -0.87700473      -0.87887808       2.04653946       0.00000000
Si      -1.83992292       1.34232858      -0.80245290       0.00000000
Si       1.71525555       1.69903071       0.21685026       0.00000000
Si      -1.48817295       1.03001670       3.20767312       0.00000000
Si       0.46501434       3.56037498       0.99367572       0.00000000
Si       3.11422446      -1.70329869      -1.21832115       0.00000000
Si      -3.08086254      -1.67642019       1.48394289       0.00000000
Si       2.59893918       1.95641271      -2.07454684       0.00000000
Si       0.11894958      -3.90192741      -0.00814008       0.00000000
