10
Lattice="16.28999089631971 0.0 0.0 0.0 16.28999089631971 0.0 0.0 0.0 34.49183129400761" Properties=species:S:1:pos:R:3:initial_magmoms:R:1 pbc="T T T"
Si       1.27190691      -1.43241228       1.33625223       0.00000000
Si      -1.45777581       1.29370604       1.32838809       0.00000000
Si       1.45440378       1.17942858      -1.43557638       0.00000000
Si      -0.90116280      -1.64121750      -1.45516776       0.00000000
Si      -1.77117912      -0.12745296      -2.97850034       0.00000000
Si       2.60120349       2.60332349       0.05987785       0.00000000
Si       2.62029537      -0.07617204       2.69625210       0.00000000
Si       2.35129860      -0.54747432      -2.89768593       0.00000000
Si      -2.68078014       2.64605542      -0.20435732       0.00000000
Si      -0.09596439       2.64205296       2.70235716       0.00000000
