10
Lattice="16.28999089631971 0.0 0.0 0.0 16.28999089631971 0.0 0.0 0.0 34.49183129400761" Properties=species:S:1:pos:R:3:initial_magmoms:R:1 pbc="T T T"
Si      -1.41389055       1.29790575       1.27374955       0.00000000
Si       1.34460918       1.36853919      -1.33987043       0.00000000
Si      -1.36427121      -1.34943102      -1.34073272       0.00000000
Si       1.30652316      -1.31512428       1.46400660       0.00000000
Si       2.02561263       0.56708748       2.69464133       0.00000000
Si      -0.57552570      -2.05589574       2.73230643       0.00000000
Si      -2.28607344      -0.38072988       2.60078901       0.00000000
Si       0.23441310       2.34582516       2.62234642       0.00000000
Si       2.70322776       0.01211976      -2.69726271       0.00000000
Si      -0.01093059      -2.70225036      -2.69840095       0.00000000
