10
Lattice="16.28999089631971 0.0 0.0 0.0 16.28999089631971 0.0 0.0 0.0 34.49183129400761" Properties=species:S:1:pos:R:3:initial_magmoms:R:1 pbc="T T T"
Si      -1.15808868       1.39951595       1.43686151       0.00000000
Si       1.31043276      -1.42583112       1.27209394       0.00000000
Si       1.35534429       1.35883035      -1.34225036       0.00000000
Si      -1.35995436      -1.35669636      -1.34104315       0.00000000
Si      -2.09670219      -0.10129122       3.08339898       0.00000000
Si      -0.00050499      -2.71221984      -2.69891832       0.00000000
Si       2.71363707       0.00206883      -2.69967714       0.00000000
Si      -0.00302994       2.71622785      -2.69926324       0.00000000
Si      -2.71702539       0.00250866      -2.69874586       0.00000000
Si      -2.72292237      -2.69803125       0.03452634       0.00000000
