10
Lattice="16.28999089631971 0.0 0.0 0.0 16.28999089631971 0.0 0.0 0.0 34.49183129400761" Properties=species:S:1:pos:R:3:initial_magmoms:R:1 pbc="T T T"
Si      -0.12191436      -1.73610675      -1.61863356       0.00000000
Si       0.95117310       1.61038053      -1.50029202       0.00000000
Si      -1.81053576       1.14160320       1.08394090       0.00000000
Si       1.58521248      -0.00444717       2.41656803       0.00000000
Si      -2.52651384       1.96612155      -1.02395957       0.00000000
Si       1.93253157      -1.39289274      -2.61344752       0.00000000
Si       2.33381943       2.99908674      -0.22688739       0.00000000
Si      -0.09480780      -3.80451321      -0.54279825       0.00000000
Si       3.75438888      -0.21009213       0.83835892       0.00000000
Si      -0.77846652       3.02306562      -2.27908352       0.00000000
