10
Lattice="16.28999089631971 0.0 0.0 0.0 16.28999089631971 0.0 0.0 0.0 34.49183129400761" Properties=species:S:1:pos:R:3:initial_magmoms:R:1 pbc="T T T"
Si      -0.89689482       1.72690290       1.46210955       0.00000000
Si       1.60461387      -1.22733747       1.36132436       0.00000000
Si      -1.51138620      -1.94258250      -0.57456525       0.00000000
Si       1.24704837       0.10254555      -2.45864809       0.00000000
Si       0.65779020      -2.14822746      -2.15277436       0.00000000
Si      -2.52620433       1.68010173      -1.44538100       0.00000000
Si      -0.76277925       1.06095141      -3.21802067       0.00000000
Si       0.18886626      -2.33878788       2.84225063       0.00000000
Si      -1.54694727       3.38244813      -0.03938969       0.00000000
Si       1.97293077      -3.11738472      -0.48695595       0.00000000
