10
Lattice="16.28999089631971 0.0 0.0 0.0 16.28999089631971 0.0 0.0 0.0 34.49183129400761" Properties=species:S:1:pos:R:3:initial_magmoms:R:1 pbc="T T T"
Si      -1.35532455       1.35583299      -1.35504684       0.00000000
Si      -1.35612276      -1.35799956       1.35711635       0.00000000
Si       1.35916190       1.35659862       1.35759924       0.00000000
Si       1.36013930      -1.35803214      -1.36229013       0.00000000
Si      -2.68910088       0.01135413      -2.71412233       0.00000000
Si      -2.71290057       2.71350675       0.00048289       0.00000000
Si      -2.71350330      -0.00114030       2.71478457       0.00000000
Si       0.00174134       2.71445157       2.71440516       0.00000000
Si       2.71610749       2.71355562       0.00027593       0.00000000
Si      -2.71387797      -2.71621089       0.00003449       0.00000000
