10
Lattice="16.28999089631971 0.0 0.0 0.0 16.28999089631971 0.0 0.0 0.0 34.49183129400761" Properties=species:S:1:pos:R:3:initial_magmoms:R:1 pbc="T T T"
Si      -1.35754344      -1.35715574       1.35742678       0.00000000
Si       1.35775521       1.35821133       1.35708186       0.00000000
Si       1.35891180      -1.35804843      -1.35887544       0.00000000
Si      -1.35870003       1.35764118      -1.36239361       0.00000000
Si      -2.71440270       0.00045612       2.71468110       0.00000000
Si       0.00068418      -2.71470208       2.71471559       0.00000000
Si      -2.71464705       2.71513575       0.00044839       0.00000000
Si       0.00037467       2.71507059       2.71475008       0.00000000
Si       2.71387797       2.71621089      -0.00003449       0.00000000
Si      -2.71621089      -2.71423313       0.00000000       0.00000000
