10
Lattice="16.28999089631971 0.0 0.0 0.0 16.28999089631971 0.0 0.0 0.0 34.49183129400761" Properties=species:S:1:pos:R:3:initial_magmoms:R:1 pbc="T T T"
Si       1.35612276       1.35799956      -1.35711635       0.00000000
Si      -1.35738054       1.35685926       1.35766822       0.00000000
Si      -1.35775521      -1.35821133      -1.35708186       0.00000000
Si       1.35793263      -1.35817875       1.35787517       0.00000000
Si       0.00079821       2.71383255      -2.71216319       0.00000000
Si      -2.71441899       2.71469592       0.00031043       0.00000000
Si      -2.71414206      -0.00102627       2.71557789       0.00000000
Si       0.00057015       2.71520091       2.71464661       0.00000000
Si       2.71528466       2.71459818       0.00048289       0.00000000
Si       0.00219915      -2.71529051       2.71468110       0.00000000
