10
Lattice="16.28999089631971 0.0 0.0 0.0 16.28999089631971 0.0 0.0 0.0 34.49183129400761" Properties=species:S:1:pos:R:3:initial_magmoms:R:1 pbc="T T T"
Si       1.35676152       1.35788553      -1.35790967       0.00000000
Si      -1.35801585      -1.35672894      -1.35797865       0.00000000
Si       1.35729909      -1.35765747       1.35959977       0.00000000
Si      -1.36031274       1.35909099       1.35949629       0.00000000
Si      -0.00115659      -2.71434080      -2.71523297       0.00000000
Si       2.71414206       0.00102627      -2.71557789       0.00000000
Si       2.71634121      -2.71426423      -0.00089679       0.00000000
Si       2.71471221       2.71622718      -0.00093128       0.00000000
Si      -0.00027693       2.71572219      -2.71526746       0.00000000
Si      -2.71585251       0.00047241      -2.71530195       0.00000000
