10
Lattice="16.28999089631971 0.0 0.0 0.0 16.28999089631971 0.0 0.0 0.0 34.49183129400761" Properties=species:S:1:pos:R:3:initial_magmoms:R:1 pbc="T T T"
Si       1.43329194      -1.22702796       1.35639202       0.00000000
Si       1.35527913       1.33301070      -1.36101393       0.00000000
Si      -1.35889551      -1.38176667      -1.35908239       0.00000000
Si      -1.34434854       1.32533811       1.49991261       0.00000000
Si      -1.86066009      -0.58567437       3.03786974       0.00000000
Si      -0.08316045      -2.33417781       2.77324826       0.00000000
Si      -2.71725345       2.67442704       0.00693286       0.00000000
Si       0.00143352       2.69159670      -2.71988937       0.00000000
Si       2.71845891       2.69410536       0.01803924       0.00000000
Si      -2.71523349      -0.02363679      -2.71802681       0.00000000
