10
Lattice="16.28999089631971 0.0 0.0 0.0 16.28999089631971 0.0 0.0 0.0 34.49183129400761" Properties=species:S:1:pos:R:3:initial_magmoms:R:1 pbc="T T T"
Si      -0.55987101      -2.11315509       0.75019775       0.00000000
Si      -0.35396541       1.40493105       1.84441722       0.00000000
Si      -1.36697535       0.25016553      -1.93030193       0.00000000
Si       2.15326174       0.41044284      -1.13878294       0.00000000
Si       1.41980382       2.56859091      -1.56175650       0.00000000
Si      -0.01304829      -3.17874915      -1.30913819       0.00000000
Si       1.93306981       1.31862663       2.64959498       0.00000000
Si      -0.78908760      -1.79017326      -3.09650588       0.00000000
Si      -0.38928213       2.05449480      -3.02476284       0.00000000
Si       1.69139854      -0.89252910      -3.30259469       0.00000000
