10
Lattice="16.28999089631971 0.0 0.0 0.0 16.28999089631971 0.0 0.0 0.0 34.49183129400761" Properties=species:S:1:pos:R:3:initial_magmoms:R:1 pbc="T T T"
Si       2.26098684       0.76163895       0.12686103       0.00000000
Si       0.11385081      -2.23031277       0.96039109       0.00000000
Si      -1.56787992       1.10713356       1.49511825       0.00000000
Si      -0.50687964       0.02945232      -2.39814939       0.00000000
Si       3.06599337      -0.47724813      -1.73732002       0.00000000
Si      -2.82554937      -0.86820813      -2.30553877       0.00000000
Si      -1.88340093      -3.30282519       0.34036558       0.00000000
Si       1.76241510       0.48501846      -3.41014028       0.00000000
Si       3.21269004       0.28193103       2.24452268       0.00000000
Si      -1.04977647       0.54232668       3.76868307       0.00000000
