10
Lattice="16.28999089631971 0.0 0.0 0.0 16.28999089631971 0.0 0.0 0.0 34.49183129400761" Properties=species:S:1:pos:R:3:initial_magmoms:R:1 pbc="T T T"
Si      -1.35974259      -1.90177605      -0.53452021       0.00000000
Si       2.35937844      -0.30222837      -0.43925372       0.00000000
Si      -1.09090872       0.82306854      -2.04184857       0.00000000
Si      -0.19455147       1.35742941       2.05336885       0.00000000
Si      -1.45121094       2.98027179       0.81728440       0.00000000
Si      -3.04662096       1.60208892      -0.96077050       0.00000000
Si      -1.87784604      -1.33696917      -2.80808503       0.00000000
Si       2.67235821       2.01912921      -1.53837103       0.00000000
Si      -3.34461393      -1.61210727       0.68607740       0.00000000
Si       2.93716749      -1.40201514       1.93375111       0.00000000
