10
Lattice="16.28999089631971 0.0 0.0 0.0 16.28999089631971 0.0 0.0 0.0 34.49183129400761" Properties=species:S:1:pos:R:3:initial_magmoms:R:1 pbc="T T T"
Si       1.35249354       1.35426915      -1.37777697       0.00000000
Si      -1.36317978      -1.36109466      -1.37905317       0.00000000
Si       1.48530707      -1.27780389       1.38936623       0.00000000
Si      -1.39957164       1.38461742       1.42447894       0.00000000
Si      -2.70609480       2.69974170      -0.03952766       0.00000000
Si      -2.71845891      -2.69410536      -0.01803924       0.00000000
Si       2.70434755       2.71340901      -0.00648447       0.00000000
Si       2.72489250      -2.71907793      -0.00465640       0.00000000
Si      -0.00286704       2.71186146      -2.73679038       0.00000000
Si       2.71204947      -0.00513135      -2.73668690       0.00000000
