10
Lattice="16.28999089631971 0.0 0.0 0.0 16.28999089631971 0.0 0.0 0.0 34.49183129400761" Properties=species:S:1:pos:R:3:initial_magmoms:R:1 pbc="T T T"
Si      -1.35612621      -1.35720135      -1.35739229       0.00000000
Si      -1.35715248       1.35708732       1.35687491       0.00000000
Si       1.35812988       1.35720135      -1.35666796       0.00000000
Si       1.35755973      -1.35780408       1.35694389       0.00000000
Si       0.00241092       2.71015101      -2.71588831       0.00000000
Si       0.00089595      -2.71365336       2.71343939       0.00000000
Si      -2.71300176       0.00011403       2.71457762       0.00000000
Si       0.00114030       2.71440270       2.71381880       0.00000000
Si      -2.71440270       2.71410948      -0.00010348       0.00000000
Si       2.71526607       2.71410948      -0.00065535       0.00000000
