10
Lattice="16.28999089631971 0.0 0.0 0.0 16.28999089631971 0.0 0.0 0.0 34.49183129400761" Properties=species:S:1:pos:R:3:initial_magmoms:R:1 pbc="T T T"
Si       1.35536058      -1.35759231       1.35901340       0.00000000
Si       1.35780419       1.35659862      -1.35763373       0.00000000
Si      -1.35861858       1.35641943       1.35739229       0.00000000
Si      -1.35749457      -1.35852084      -1.35763373       0.00000000
Si      -2.70322776      -0.01211976       2.69726271       0.00000000
Si      -2.71391400       2.71368594      -0.00075882       0.00000000
Si      -2.71415835      -2.71437012      -0.00113823       0.00000000
Si       0.00021177       2.71339272      -2.71523297       0.00000000
Si      -2.71505430      -0.00071676      -2.71457762       0.00000000
Si       2.71537263      -0.00159642      -2.71519848       0.00000000
