10
Lattice="16.28999089631971 0.0 0.0 0.0 16.28999089631971 0.0 0.0 0.0 34.49183129400761" Properties=species:S:1:pos:R:3:initial_magmoms:R:1 pbc="T T T"
Si       0.16076601       1.81643274       1.44089706       0.00000000
Si       0.20942424      -2.08378422       1.07683557       0.00000000
Si       2.16492049       0.12206097      -0.96170178       0.00000000
Si      -1.77627789       0.09014886      -1.75053040       0.00000000
Si       0.47596122       3.55029147      -0.17815041       0.00000000
Si       2.35639641       1.37987703       2.41849958       0.00000000
Si       0.67878801      -3.51505620      -0.76385652       0.00000000
Si       3.61229840       0.00620649       0.83801400       0.00000000
Si      -1.86548193      -2.55536343       2.00963318       0.00000000
Si      -2.01098421       2.22674526       2.41191163       0.00000000
