10
Lattice="16.28999089631971 0.0 0.0 0.0 16.28999089631971 0.0 0.0 0.0 34.49183129400761" Properties=species:S:1:pos:R:3:initial_magmoms:R:1 pbc="T T T"
Si       0.62921917       2.18292516      -0.66945233       0.00000000
Si       1.81417495      -1.38276036      -0.68221431       0.00000000
Si      -2.28703522       0.08630442      -0.80517776       0.00000000
Si      -0.99476581      -0.63833994       2.12442206       0.00000000
Si      -3.10562401       0.02393001       1.41751158       0.00000000
Si       0.61286075       3.08042271       1.48090760       0.00000000
Si      -1.93306981      -1.31862663      -2.64959498       0.00000000
Si      -0.98262976       2.68123626      -2.37065938       0.00000000
Si       3.63231814      -0.71628759       0.73070985       0.00000000
Si      -1.63025500      -2.88106569       1.90570924       0.00000000
