10
Lattice="16.28999089631971 0.0 0.0 0.0 16.28999089631971 0.0 0.0 0.0 34.49183129400761" Properties=species:S:1:pos:R:3:initial_magmoms:R:1 pbc="T T T"
Si       2.26341242       0.34344207      -0.56766688       0.00000000
Si      -0.95170320       0.47970792      -2.11766166       0.00000000
Si      -0.22544613      -2.18137761       0.94245532       0.00000000
Si      -0.54334548       1.85994333       1.61942688       0.00000000
Si       1.12168542      -1.02320748       2.78418218       0.00000000
Si       3.07654406      -0.30022470       1.54175123       0.00000000
Si      -2.53106757      -2.69267184       1.00961096       0.00000000
Si       2.94081578      -1.12850604      -2.27725545       0.00000000
Si      -3.21269004      -0.28193103      -2.24452268       0.00000000
Si       2.82010688       2.56347585      -1.23629140       0.00000000
