10
Lattice="16.28999089631971 0.0 0.0 0.0 16.28999089631971 0.0 0.0 0.0 34.49183129400761" Properties=species:S:1:pos:R:3:initial_magmoms:R:1 pbc="T T T"
Si       1.35676814       1.35672669       1.35694389       0.00000000
Si      -1.35777207       1.35573788      -1.35918586       0.00000000
Si      -1.35868431      -1.35880232       1.35694389       0.00000000
Si       1.36078036      -1.36075712      -1.36270403       0.00000000
Si      -2.69029407      -0.01788297      -2.72192439       0.00000000
Si       2.71339934      -0.00057225       2.71471559       0.00000000
Si      -0.00099603       2.71381889       2.71464661       0.00000000
Si      -0.00109189      -2.71559642       2.71454313       0.00000000
Si       2.71572881       2.71451936       0.00037941       0.00000000
Si      -2.71599969      -0.00091576       2.71440516       0.00000000
