10
Lattice="16.28999089631971 0.0 0.0 0.0 16.28999089631971 0.0 0.0 0.0 34.49183129400761" Properties=species:S:1:pos:R:3:initial_magmoms:R:1 pbc="T T T"
Si      -1.35694560      -1.35695700       1.35732330       0.00000000
Si       1.35778779       1.35786924       1.35708186       0.00000000
Si      -1.35695863       1.35736425      -1.36091046       0.00000000
Si       1.35855342      -1.35646830      -1.36291098       0.00000000
Si      -2.71436616       0.00089595       2.71412923       0.00000000
Si       0.00074934      -2.71443528       2.71468110       0.00000000
Si      -2.71610749      -2.71355562      -0.00027593       0.00000000
Si       0.00019548       2.71523349       2.71450864       0.00000000
Si       2.71564074       0.00061902       2.71454313       0.00000000
Si       2.71590138      -2.71440270      -0.00055187       0.00000000
