10
Lattice="16.28999089631971 0.0 0.0 0.0 16.28999089631971 0.0 0.0 0.0 34.49183129400761" Properties=species:S:1:pos:R:3:initial_magmoms:R:1 pbc="T T T"
Si      -1.35573348      -1.35711175       1.35680593       0.00000000
Si       1.35776417      -1.35709221      -1.35770271       0.00000000
Si       1.35811440       1.35848826       1.35721983       0.00000000
Si      -1.35793263       1.35817875      -1.35787517       0.00000000
Si      -0.00017742      -2.71450763       2.71185277       0.00000000
Si       0.00099603      -2.71381889      -2.71464661       0.00000000
Si       2.71439537      -2.71439115       0.00006898       0.00000000
Si       2.71332023       0.00296478       2.71606077       0.00000000
Si      -2.71500366      -2.71473466      -0.00024144       0.00000000
Si       2.71504697       2.71529865      -0.00003449       0.00000000
