10
Lattice="16.28999089631971 0.0 0.0 0.0 16.28999089631971 0.0 0.0 0.0 34.49183129400761" Properties=species:S:1:pos:R:3:initial_magmoms:R:1 pbc="T T T"
Si      -1.35708498      -1.35635427      -1.35822009       0.00000000
Si       1.35747665       1.35798327      -1.35784068       0.00000000
Si       1.35747665      -1.35772263       1.35970324       0.00000000
Si      -1.35955593       1.35940050       1.35890993       0.00000000
Si      -2.71437894      -2.71360449      -0.00086230       0.00000000
Si       0.00033557      -2.71420722      -2.71502602       0.00000000
Si       2.71466171       2.71463076      -0.00037941       0.00000000
Si      -2.71472103       0.00070047      -2.71530195       0.00000000
Si       2.71728440      -2.71298547       0.00020695       0.00000000
Si       2.71506896       0.00061902      -2.71526746       0.00000000
