10
Lattice="16.28999089631971 0.0 0.0 0.0 16.28999089631971 0.0 0.0 0.0 34.49183129400761" Properties=species:S:1:pos:R:3:initial_magmoms:R:1 pbc="T T T"
Si      -1.34463361      -1.35622395       1.37232726       0.00000000
Si       1.35980775      -1.35526284      -1.35949629       0.00000000
Si      -1.35747665       1.35772263      -1.35970324       0.00000000
Si       1.36780614       1.34684091       1.36611873       0.00000000
Si      -2.58421905       0.08505009       2.76634989       0.00000000
Si       2.62177776      -0.16798248       2.79487465       0.00000000
Si      -2.71262691      -2.71655298       0.00055187       0.00000000
Si       2.71896390       2.71156824       0.00031043       0.00000000
Si       0.00055386      -2.71396287      -2.71737146       0.00000000
Si      -2.71456164       0.00136836      -2.71792333       0.00000000
