10
Lattice="16.28999089631971 0.0 0.0 0.0 16.28999089631971 0.0 0.0 0.0 34.49183129400761" Properties=species:S:1:pos:R:3:initial_magmoms:R:1 pbc="T T T"
Si      -1.26637646       0.95314419      -1.81889325       0.00000000
Si       1.43800789      -1.71690084      -0.91862146       0.00000000
Si       1.37595928       1.47963699       1.40219720       0.00000000
Si      -1.47526573      -1.39812183       1.58690106       0.00000000
Si      -1.40775867      -1.11623967      -3.06980919       0.00000000
Si       0.92672996      -1.46298861      -3.21826212       0.00000000
Si      -1.48054827      -3.43948689       0.10637287       0.00000000
Si       1.23226519       3.56547375       0.22702536       0.00000000
Si       0.86093464      -3.73102902       0.10982205       0.00000000
Si       3.59032414       0.30915162       1.40957846       0.00000000
