10
Lattice="16.28999089631971 0.0 0.0 0.0 16.28999089631971 0.0 0.0 0.0 34.49183129400761" Properties=species:S:1:pos:R:3:initial_magmoms:R:1 pbc="T T T"
Si       1.35353121      -1.35552348       1.36329039       0.00000000
Si      -1.36078036       1.36075712       1.36270403       0.00000000
Si       1.37184117       1.35772468      -1.37955330       0.00000000
Si      -1.38231631      -1.35242838      -1.37475548       0.00000000
Si      -0.08433659       2.59480056      -2.79184972       0.00000000
Si       2.70703473      -2.71391400       0.00206951       0.00000000
Si       2.71154706       2.71452229       0.00400105       0.00000000
Si       2.71039047       0.00244350       2.71961343       0.00000000
Si      -2.71834066      -2.71321353       0.00289732       0.00000000
Si      -0.00430382      -2.71303434       2.71968242       0.00000000
