10
Lattice="16.28999089631971 0.0 0.0 0.0 16.28999089631971 0.0 0.0 0.0 34.49183129400761" Properties=species:S:1:pos:R:3:initial_magmoms:R:1 pbc="T T T"
Si      -1.32724404       1.24478406      -1.47476805       0.00000000
Si      -1.11711444      -1.41990156       1.54157877       0.00000000
Si       0.69893874       1.95173748       1.22784090       0.00000000
Si       1.61500689      -1.47810573      -1.41192390       0.00000000
Si       2.38550760      -1.20904380       1.98790332       0.00000000
Si       2.70459612       1.16346438       2.07258081       0.00000000
Si       0.33026346      -1.53575604       3.34129455       0.00000000
Si      -2.54592242      -0.33917409      -2.77393810       0.00000000
Si       0.23524389       2.44853151      -2.89041708       0.00000000
Si      -2.49609131       2.90191104      -0.02955952       0.00000000
