10
Lattice="16.28999089631971 0.0 0.0 0.0 16.28999089631971 0.0 0.0 0.0 34.49183129400761" Properties=species:S:1:pos:R:3:initial_magmoms:R:1 pbc="T T T"
Si       1.08541084       2.08912734      -0.05973989       0.00000000
Si       0.09541868      -0.79565247       2.22827702       0.00000000
Si       1.25590198      -1.37367054      -1.58048558       0.00000000
Si      -2.19563040       0.43655571      -0.97760252       0.00000000
Si       2.78001068      -0.08153145      -0.27317546       0.00000000
Si      -0.19147592      -1.25781606      -3.38020136       0.00000000
Si      -2.35639641      -1.37987703      -2.41849958       0.00000000
Si       0.21844076       3.05345366      -2.00563213       0.00000000
Si       1.59698201      -3.41470980      -0.47736721       0.00000000
Si       0.95095319       3.13826265       2.04822956       0.00000000
