10
Lattice="16.28999089631971 0.0 0.0 0.0 16.28999089631971 0.0 0.0 0.0 34.49183129400761" Properties=species:S:1:pos:R:3:initial_magmoms:R:1 pbc="T T T"
Si       2.19851469       0.46015992      -0.63699550       0.00000000
Si      -0.72829332       0.28509129       2.21034126       0.00000000
Si      -0.22121820      -2.33393346      -0.32077421       0.00000000
Si      -1.43531190       1.14812964      -1.50277544       0.00000000
Si      -2.24453394      -1.52798571       2.18488627       0.00000000
Si       2.25877140      -0.86745879      -2.59399411       0.00000000
Si      -0.46312470      -3.05815428       1.87156230       0.00000000
Si       1.61834634      -2.96249940      -1.55082259       0.00000000
Si      -3.61372962       0.79247333      -0.68462874       0.00000000
Si      -1.30085424       0.09899433      -3.61074489       0.00000000
