10
Lattice="10.86 0.0 0.0 0.0 10.86 0.0 0.0 0.0 10.86" Properties=species:S:1:pos:R:3:initial_magmoms:R:1 pbc="T T T"
Si      -1.32477882      -1.39853994       1.29373008       0.00000000
Si      -1.32477882       1.31646006      -1.42126992       0.00000000
Si       1.39022118      -1.39853994      -1.42126992       0.00000000
Si       1.96003452       1.71976788       0.90413844       0.00000000
Si       2.65329348       0.09694722       2.65597590       0.00000000
Si      -2.68227882      -0.04103994       2.65123008       0.00000000
Si      -2.68227882       2.67396006      -0.06376992       0.00000000
Si       0.03272118      -2.75603994       2.65123008       0.00000000
Si      -2.68227882      -2.75603994      -0.06376992       0.00000000
Si      -2.68227882      -0.04103994      -2.77876992       0.00000000
