10
Lattice="10.86 0.0 0.0 0.0 10.86 0.0 0.0 0.0 10.86" Properties=species:S:1:pos:R:3:initial_magmoms:R:1 pbc="T T T"
Si       1.45192770       1.21951284       1.35275418       0.00000000
Si      -1.26307230      -1.49548716       1.35275418       0.00000000
Si      -0.69325896       1.62282066      -1.75183746       0.00000000
Si       1.45192770      -1.49548716      -1.36224582       0.00000000
Si      -2.41322232       2.66478336       0.03531672       0.00000000
Si       2.64097824       2.59109826      -0.06455184       0.00000000
Si       0.09442770       2.57701284       2.71025418       0.00000000
Si      -2.65329348      -0.09694722      -2.65597590       0.00000000
Si      -2.62057230      -0.13798716       2.71025418       0.00000000
Si      -2.62057230      -2.85298716      -0.00474582       0.00000000
