10
Lattice="10.86 0.0 0.0 0.0 10.86 0.0 0.0 0.0 10.86" Properties=species:S:1:pos:R:3:initial_magmoms:R:1 pbc="T T T"
Si       1.15015002       1.26972948       1.31743746       0.00000000
Si      -1.56484998       1.26972948      -1.39756254       0.00000000
Si      -1.56484998      -1.44527052       1.31743746       0.00000000
Si       1.71996336      -1.04196270      -1.78715418       0.00000000
Si       2.46717480       2.46426432      -0.05717790       0.00000000
Si       2.41322232      -2.66478336      -0.03531672       0.00000000
Si       2.50765002      -0.08777052       2.67493746       0.00000000
Si      -0.08303556       2.56849860      -2.72268888       0.00000000
Si      -0.20734998       2.62722948       2.67493746       0.00000000
Si      -0.24007116      -2.76173058      -2.69129262       0.00000000
