10
Lattice="16.28999089631971 0.0 0.0 0.0 16.28999089631971 0.0 0.0 0.0 34.642051614445585" Properties=species:S:1:pos:R:3:initial_magmoms:R:1 pbc="T T T"
Si       0.72186529      -1.74144987      -1.34691836       0.00000000
Si      -1.58135242       1.30611591      -1.08616749       0.00000000
Si      -0.69191286      -0.93139704       2.02669972       0.00000000
Si       2.07507559       1.11612564       0.30800265       0.00000000
Si       1.63879681      -3.30284637       0.13202093       0.00000000
Si       0.15188796       0.55193778       3.66267152       0.00000000
Si       2.12041066      -0.75057804      -2.96425273       0.00000000
Si       0.51201751      -3.00565161       2.24096093       0.00000000
Si      -2.39158444       2.95766127       0.42045082       0.00000000
Si      -0.67263528       2.46278736      -2.89140045       0.00000000
