10
Lattice="16.28999089631971 0.0 0.0 0.0 16.28999089631971 0.0 0.0 0.0 34.642051614445585" Properties=species:S:1:pos:R:3:initial_magmoms:R:1 pbc="T T T"
Si      -1.34918667      -1.35670776       1.39744382       0.00000000
Si       1.36987497       1.35697329       1.39879486       0.00000000
Si       1.28054061      -1.47795912      -1.52138276       0.00000000
Si      -1.44213741       1.46404746      -1.41818057       0.00000000
Si      -2.70555723      -2.69960056       0.01607739       0.00000000
Si       2.69920413       2.70914103       0.02971597       0.00000000
Si      -2.70707220       2.71094922       0.07322295       0.00000000
Si       2.71839375      -2.71844981       0.01351387       0.00000000
Si      -2.70695817       0.00006516       2.75863472       0.00000000
Si       0.00864999       2.71329498       2.75804580       0.00000000
