10
Lattice="16.28999089631971 0.0 0.0 0.0 16.28999089631971 0.0 0.0 0.0 34.642051614445585" Properties=species:S:1:pos:R:3:initial_magmoms:R:1 pbc="T T T"
Si       1.35511623      -1.35264734       1.35925094       0.00000000
Si      -1.35422028       1.35089712       1.36361584       0.00000000
Si       1.35685926       1.35645201      -1.35696456       0.00000000
Si      -1.35866745      -1.35837729      -1.35623708       0.00000000
Si       2.69216685       0.01831973       2.68088059       0.00000000
Si      -0.00169416       2.71402803      -2.71379056       0.00000000
Si       2.71433754      -0.00140909      -2.71365199       0.00000000
Si      -0.00086337      -2.71592486      -2.71382520       0.00000000
Si       2.71379997      -2.71605518       0.00096998       0.00000000
Si      -2.71620112      -0.00070373      -2.71372127       0.00000000
