10
Lattice="16.28999089631971 0.0 0.0 0.0 16.28999089631971 0.0 0.0 0.0 34.642051614445585" Properties=species:S:1:pos:R:3:initial_magmoms:R:1 pbc="T T T"
Si      -1.47672108       1.07494615       1.39856969       0.00000000
Si       1.71056403       0.36759199       1.52508253       0.00000000
Si       1.41876126      -1.40663891      -1.32405459       0.00000000
Si      -1.45888353       1.23392026      -1.44880069       0.00000000
Si       1.38732156      -1.96628186       2.04748496       0.00000000
Si       0.42929037       2.41399229      -2.41049922       0.00000000
Si      -2.64409506      -0.60298805      -2.36026822       0.00000000
Si       2.95811739      -2.28680390       0.20501178       0.00000000
Si      -0.73862118      -2.92621898       2.53458712       0.00000000
Si       3.88464372      -0.07696699       0.66616702       0.00000000
