10
Lattice="16.28999089631971 0.0 0.0 0.0 16.28999089631971 0.0 0.0 0.0 34.642051614445585" Properties=species:S:1:pos:R:3:initial_magmoms:R:1 pbc="T T T"
Si       0.98719029       1.31716053      -1.68734599       0.00000000
Si      -2.25632790      -0.61729326      -0.36304890       0.00000000
Si       0.83106693       0.09550827       2.21899786       0.00000000
Si       0.71192187      -2.12309851      -0.81845357       0.00000000
Si       1.28260944      -0.82914471      -2.73519936       0.00000000
Si      -2.43242280      -1.41367878       1.95374352       0.00000000
Si      -1.23382089       0.18471231       3.23958791       0.00000000
Si       1.62895113      -3.26651057       1.03080946       0.00000000
Si      -0.65573766       2.79397935      -2.56687353       0.00000000
Si       1.82125458       2.20318992       2.58097286       0.00000000
