10
Lattice="16.28999089631971 0.0 0.0 0.0 16.28999089631971 0.0 0.0 0.0 34.642051614445585" Properties=species:S:1:pos:R:3:initial_magmoms:R:1 pbc="T T T"
Si       2.06488782      -0.08920404      -1.02059005       0.00000000
Si      -1.19860191      -1.59839109      -1.28584439       0.00000000
Si      -0.44825193       2.23998903      -0.68906543       0.00000000
Si       1.06262928      -0.62147979       2.06788914       0.00000000
Si      -0.48861855      -3.37447361       0.14799093       0.00000000
Si       1.23382089      -0.18471231      -3.23958791       0.00000000
Si      -1.42133508       3.10849038       1.25324620       0.00000000
Si       1.09239111      -2.95603064       1.87008292       0.00000000
Si       3.05507547       2.01847761      -0.65861505       0.00000000
Si      -3.38051709      -1.50335523      -0.40004664       0.00000000
