10
Lattice="16.28999089631971 0.0 0.0 0.0 16.28999089631971 0.0 0.0 0.0 34.642051614445585" Properties=species:S:1:pos:R:3:initial_magmoms:R:1 pbc="T T T"
Si       1.39874085      -0.70980417      -1.76293499       0.00000000
Si       0.22276575       2.28431412      -0.69388068       0.00000000
Si       1.63973511      -0.49715451       1.73445921       0.00000000
Si      -2.31405966      -0.80339022      -0.15675537       0.00000000
Si      -3.33607797       0.34814988       1.68294645       0.00000000
Si      -2.15744760       2.42717742       2.04166509       0.00000000
Si       0.33611157      -0.08832438      -3.83082413       0.00000000
Si      -0.30030615       3.67414434       1.15222992       0.00000000
Si       1.42850268      -3.04435502      -1.96074122       0.00000000
Si       3.79105767      -0.02801880       1.05138685       0.00000000
