10
Lattice="16.28999089631971 0.0 0.0 0.0 16.28999089631971 0.0 0.0 0.0 34.642051614445585" Properties=species:S:1:pos:R:3:initial_magmoms:R:1 pbc="T T T"
Si      -1.33069752      -1.34776944       1.35668743       0.00000000
Si       1.36016613      -1.35511623      -1.35883523       0.00000000
Si      -1.35615879       1.35941679      -1.35914701       0.00000000
Si       1.35492075       1.37526696       1.38994381       0.00000000
Si      -2.55155157       0.16575075       2.65614615       0.00000000
Si       0.07910424      -2.68578117       2.73655040       0.00000000
Si      -2.71137276       2.71313208       0.00010393       0.00000000
Si       2.71450044      -2.71090035      -0.00284065       0.00000000
Si      -2.70954828      -2.71946889       0.00460740       0.00000000
Si      -2.71349046       0.00092853      -2.71576515       0.00000000
