10
Lattice="16.28999089631971 0.0 0.0 0.0 16.28999089631971 0.0 0.0 0.0 34.642051614445585" Properties=species:S:1:pos:R:3:initial_magmoms:R:1 pbc="T T T"
Si      -1.72098963       1.45119465       0.66052037       0.00000000
Si       1.46308635      -0.32869962       1.82148009       0.00000000
Si       1.12365162       1.25462322      -1.67071780       0.00000000
Si      -0.95478948      -1.90610919      -1.07255316       0.00000000
Si      -2.66830200       1.92344175      -1.48039426       0.00000000
Si       0.88883127      -3.37069422      -1.09209129       0.00000000
Si      -3.09585423       0.16182486       2.03581058       0.00000000
Si      -0.72311310       2.39645448      -2.80451814       0.00000000
Si       3.33726714       1.09424817       1.42074061       0.00000000
Si       2.78702352       2.51823852      -0.49638623       0.00000000
