10
Lattice="16.28999089631971 0.0 0.0 0.0 16.28999089631971 0.0 0.0 0.0 34.642051614445585" Properties=species:S:1:pos:R:3:initial_magmoms:R:1 pbc="T T T"
Si      -0.52307190       1.38983022       1.84611060       0.00000000
Si      -0.22276575      -2.28431412       0.69388068       0.00000000
Si      -1.30798926       0.73585188      -1.88369725       0.00000000
Si       2.20252203       0.96630651      -0.48187121       0.00000000
Si       1.17597510      -2.99411829      -1.06905431       0.00000000
Si      -0.47563542       2.99522601      -1.71408967       0.00000000
Si      -0.94343535       3.39620436       0.55098214       0.00000000
Si      -2.38021335       0.14286330       2.73554578       0.00000000
Si       1.76252913       2.51349813      -2.20392856       0.00000000
Si      -0.33490611      -0.13264947      -3.82600889       0.00000000
