10
Lattice="16.28999089631971 0.0 0.0 0.0 16.28999089631971 0.0 0.0 0.0 34.642051614445585" Properties=species:S:1:pos:R:3:initial_magmoms:R:1 pbc="T T T"
Si      -1.39229001       1.36301688       1.23897367       0.00000000
Si       1.33731126       1.37169945      -1.37847729       0.00000000
Si      -1.37696112      -1.34148150      -1.37681447       0.00000000
Si       1.46440584      -1.28879964       1.61085630       0.00000000
Si      -2.38449762      -0.22872789       2.65091520       0.00000000
Si       2.70177795      -2.70886410       0.02653583       0.00000000
Si      -2.72148885      -2.70181053      -0.01759817       0.00000000
Si       2.69413794       0.01672983      -2.73689682       0.00000000
Si       2.69553888       2.73735531      -0.01610856       0.00000000
Si      -0.02143764      -2.69847108      -2.73592684       0.00000000
