10
Lattice="16.28999089631971 0.0 0.0 0.0 16.28999089631971 0.0 0.0 0.0 34.642051614445585" Properties=species:S:1:pos:R:3:initial_magmoms:R:1 pbc="T T T"
Si       2.01227112       0.83787615       0.89089014       0.00000000
Si      -1.49679036      -0.12497688       1.87136467       0.00000000
Si      -0.72648513       1.67990625      -1.56478235       0.00000000
Si       0.64039248      -2.07552519      -1.06347694       0.00000000
Si       3.22432857       1.52679654      -1.07231066       0.00000000
Si       1.19063610      -3.49951554       0.85364991       0.00000000
Si       1.58570118       2.80676700       2.07422864       0.00000000
Si      -3.07169127       1.49006259      -1.81500202       0.00000000
Si      -0.82427400      -1.79458785       3.36630860       0.00000000
Si      -3.55330512      -1.06220574       1.28127164       0.00000000
