10
Lattice="16.28999089631971 0.0 0.0 0.0 16.28999089631971 0.0 0.0 0.0 34.642051614445585" Properties=species:S:1:pos:R:3:initial_magmoms:R:1 pbc="T T T"
Si       1.47672108      -1.07494615      -1.39856969       0.00000000
Si      -0.80699031       2.20741717      -0.34448075       0.00000000
Si      -0.41041026      -0.48295289       2.32708112       0.00000000
Si       0.01783755       0.15897411      -2.84737038       0.00000000
Si       3.18728511      -0.70735415       0.12651284       0.00000000
Si      -2.16557305       1.19297371       2.54473725       0.00000000
Si      -3.03891905       1.90298965       0.41591270       0.00000000
Si      -1.28436876       2.24258728      -2.70118084       0.00000000
Si       1.72082673      -0.10249179       3.44380292       0.00000000
Si       0.23771997       3.58923271       1.45531340       0.00000000
