10
Lattice="16.28999089631971 0.0 0.0 0.0 16.28999089631971 0.0 0.0 0.0 34.642051614445585" Properties=species:S:1:pos:R:3:initial_magmoms:R:1 pbc="T T T"
Si      -2.23816455       0.48172788       0.48983888       0.00000000
Si       0.43999290      -1.54719162       1.72205735       0.00000000
Si       1.69676640       1.59135381      -0.45422683       0.00000000
Si      -0.22325445      -1.22319981      -2.02281981       0.00000000
Si       2.20071384      -2.66525577       0.66398457       0.00000000
Si      -3.07051839      -1.77764625       0.32023130       0.00000000
Si       1.40589216      -2.86765902      -1.59162995       0.00000000
Si       0.59838057       3.11419188      -1.98557958       0.00000000
Si      -2.09743524      -2.64614760      -1.62208033       0.00000000
Si      -2.91068091       2.15133885      -1.00510505       0.00000000
