10
Lattice="16.28999089631971 0.0 0.0 0.0 16.28999089631971 0.0 0.0 0.0 34.642051614445585" Properties=species:S:1:pos:R:3:initial_magmoms:R:1 pbc="T T T"
Si      -0.67251636       1.66961097      -1.49494393       0.00000000
Si       2.23816455      -0.48172788      -0.48983888       0.00000000
Si      -0.46779993       0.40097835       2.26507181       0.00000000
Si      -0.83235384      -2.25937413      -0.16960758       0.00000000
Si       0.47563542      -2.99522601       1.71408967       0.00000000
Si      -2.72903112       0.73238211      -2.08503697       0.00000000
Si      -2.62055601       1.30331403       2.05597227       0.00000000
Si       2.67815745      -2.02891950       1.23221846       0.00000000
Si       2.01491010      -1.70492769      -2.51265869       0.00000000
Si       0.14072931      -3.12787548      -2.11191921       0.00000000
