10
Lattice="16.28999089631971 0.0 0.0 0.0 16.28999089631971 0.0 0.0 0.0 34.642051614445585" Properties=species:S:1:pos:R:3:initial_magmoms:R:1 pbc="T T T"
Si      -1.21440321      -1.66377915      -1.23422913       0.00000000
Si      -1.38608352       1.28614608       1.48579842       0.00000000
Si       1.32043482      -1.42627095       1.49686657       0.00000000
Si       1.72191816       0.72830961      -1.59062676       0.00000000
Si       2.60001432       2.50778753      -0.05166172       0.00000000
Si       0.68326776      -3.44836494      -1.06895281       0.00000000
Si       2.66330097      -2.67784794       0.00378638       0.00000000
Si      -2.73913092       2.74677975       0.09501627       0.00000000
Si      -0.02971296       2.62903888       2.86716486       0.00000000
Si      -2.25539937      -0.68686785      -3.13077859       0.00000000
