10
Lattice="16.28999089631971 0.0 0.0 0.0 16.28999089631971 0.0 0.0 0.0 34.642051614445585" Properties=species:S:1:pos:R:3:initial_magmoms:R:1 pbc="T T T"
Si       1.35751086      -1.35651717      -1.35724170       0.00000000
Si      -1.35695700       1.35785295      -1.35692992       0.00000000
Si       1.35770634       1.35772263       1.35786526       0.00000000
Si      -1.35855342      -1.35759231       1.35717241       0.00000000
Si      -2.71129131       0.00004887       2.71611157       0.00000000
Si      -2.71401174       0.00099369      -2.71424090       0.00000000
Si       2.71430496       0.00096111      -2.71420626       0.00000000
Si       0.00070047      -2.71472850      -2.71382520       0.00000000
Si       0.00158013       2.71425609      -2.71431019       0.00000000
Si       2.71474479      -2.71432125       0.00069284       0.00000000
