10
Lattice="16.28999089631971 0.0 0.0 0.0 16.28999089631971 0.0 0.0 0.0 34.642051614445585" Properties=species:S:1:pos:R:3:initial_magmoms:R:1 pbc="T T T"
Si      -1.37766159      -1.34114593       1.32471279       0.00000000
Si      -1.35433431       1.35578412      -1.35599458       0.00000000
Si       1.35798327      -1.36006676      -1.35495532       0.00000000
Si       1.37283975       1.34491869       1.35963200       0.00000000
Si      -0.00975771      -2.61532382       2.61329391       0.00000000
Si      -2.63539620       0.02511918       2.73939105       0.00000000
Si       0.00200367       2.71147050      -2.71295915       0.00000000
Si       2.71658556       2.70809847       0.00332564       0.00000000
Si      -2.71450044       2.71090035       0.00284065       0.00000000
Si      -2.71296918      -0.00301365      -2.71313236       0.00000000
