10
Lattice="16.28999089631971 0.0 0.0 0.0 16.28999089631971 0.0 0.0 0.0 34.642051614445585" Properties=species:S:1:pos:R:3:initial_magmoms:R:1 pbc="T T T"
Si       1.66900824      -0.35658877       1.54569456       0.00000000
Si       0.07657929       1.57142137      -1.73535990       0.00000000
Si      -2.17407969       0.44455899       0.85891551       0.00000000
Si      -0.92652633      -2.20983691      -0.46115525       0.00000000
Si      -0.82971486      -0.14948372      -3.20276339       0.00000000
Si      -2.49732216      -1.88931487       1.38131794       0.00000000
Si      -2.46588246      -1.32967192      -1.99022162       0.00000000
Si       3.55625361      -1.18457689       0.49164027       0.00000000
Si       2.00997423       1.53778252       2.84130802       0.00000000
Si      -2.06522991       2.03439946       2.61724310       0.00000000
