10
Lattice="16.28999089631971 0.0 0.0 0.0 16.28999089631971 0.0 0.0 0.0 34.642051614445585" Properties=species:S:1:pos:R:3:initial_magmoms:R:1 pbc="T T T"
Si      -0.67269555       2.18193147      -0.57055491       0.00000000
Si       1.34118828      -0.85154346      -1.73747307       0.00000000
Si       1.37095011       0.76312134       1.76411282       0.00000000
Si      -1.76989221      -1.39268749       0.87720652       0.00000000
Si      -3.38504571       0.33972795       0.54793364       0.00000000
Si      -2.39485806       2.44740960       0.90990864       0.00000000
Si       3.15784908      -1.68972097      -0.32303731       0.00000000
Si       0.31022676      -0.16439868       3.67961149       0.00000000
Si       3.50880084       0.07091037       1.19497824       0.00000000
Si       2.27307402       0.91616589      -3.09672401       0.00000000
