10
Lattice="16.28999089631971 0.0 0.0 0.0 16.28999089631971 0.0 0.0 0.0 34.642051614445585" Properties=species:S:1:pos:R:3:initial_magmoms:R:1 pbc="T T T"
Si      -2.06488782       0.08920404       1.02059005       0.00000000
Si       0.99018765       2.10768165       0.36197500       0.00000000
Si      -0.83106693      -0.09550827      -2.21899786       0.00000000
Si       1.61515350      -1.73241544       0.32927288       0.00000000
Si      -1.00225854      -0.53227575       3.08847920       0.00000000
Si      -2.51313975       2.32919307       0.33152462       0.00000000
Si       3.38504571      -0.33972795      -0.54793364       0.00000000
Si       2.71235016       1.84220352      -1.11848855       0.00000000
Si      -3.26348973      -1.50918705      -0.26525434       0.00000000
Si       0.79788420      -3.36201884      -1.18818839       0.00000000
