10
Lattice="16.28999089631971 0.0 0.0 0.0 16.28999089631971 0.0 0.0 0.0 34.642051614445585" Properties=species:S:1:pos:R:3:initial_magmoms:R:1 pbc="T T T"
Si      -1.36440153       1.94638947      -0.74289921       0.00000000
Si       2.20794660       1.13628777       0.51360334       0.00000000
Si      -0.98209152      -0.67462429       2.26011799       0.00000000
Si      -0.35813565      -1.26082319      -2.20004864       0.00000000
Si      -0.50775930      -3.41486848      -1.25307299       0.00000000
Si      -3.51572409       1.47725376      -0.05982686       0.00000000
Si      -2.92014540       0.97873089       2.32392869       0.00000000
Si       0.94081266       1.29275322      -3.51402240       0.00000000
Si       1.64452437      -0.98804877      -3.36464579       0.00000000
Si       1.51809768       3.58949661       0.13441124       0.00000000
