10
Lattice="16.28999089631971 0.0 0.0 0.0 16.28999089631971 0.0 0.0 0.0 34.642051614445585" Properties=species:S:1:pos:R:3:initial_magmoms:R:1 pbc="T T T"
Si       0.71915463       1.96672428      -1.15943547       0.00000000
Si      -1.90040769      -0.52992999      -1.39500156       0.00000000
Si      -0.50758011      -0.55824201       2.30948295       0.00000000
Si       1.87339887      -1.57977162      -0.12696319       0.00000000
Si      -0.66736872      -1.94061141      -2.77392919       0.00000000
Si       2.04240762       0.79397460      -2.75931024       0.00000000
Si      -2.90375766      -0.93038706       1.88930927       0.00000000
Si       0.70949466      -3.29543442      -1.31830401       0.00000000
Si      -2.87160120      -2.32350786      -0.05785226       0.00000000
Si      -0.23149719       1.58425137       3.44543109       0.00000000
