10
Lattice="16.28999089631971 0.0 0.0 0.0 16.28999089631971 0.0 0.0 0.0 34.642051614445585" Properties=species:S:1:pos:R:3:initial_magmoms:R:1 pbc="T T T"
Si       2.01370464       1.00243773       0.58164037       0.00000000
Si      -0.98719029      -1.31716053       1.68734599       0.00000000
Si      -1.64292795       1.47681882      -0.87952754       0.00000000
Si       0.29541915      -2.14630524      -1.04785336       0.00000000
Si      -0.27526842      -3.44025904       0.86889242       0.00000000
Si      -2.46586617       0.01562211      -2.58696593       0.00000000
Si      -1.73530854      -2.23014987      -2.29767000       0.00000000
Si       3.66174765       0.42406128      -1.03950462       0.00000000
Si       2.55622680       0.62055126       2.78785530       0.00000000
Si       2.19251997       3.32575011       0.15599325       0.00000000
