10
Lattice="16.28999089631971 0.0 0.0 0.0 16.28999089631971 0.0 0.0 0.0 34.642051614445585" Properties=species:S:1:pos:R:3:initial_magmoms:R:1 pbc="T T T"
Si      -1.11539259       0.64505142       1.98977127       0.00000000
Si       2.05969131       1.01418282      -0.65151343       0.00000000
Si      -1.98923706       0.39037356      -1.31820008       0.00000000
Si       0.35383509      -2.25663741       0.79427340       0.00000000
Si      -1.29420792      -1.67826096       2.41541840       0.00000000
Si       0.77603931       1.83352095       2.68489907       0.00000000
Si      -0.49868577      -3.28137615      -1.19026692       0.00000000
Si       1.97842050       2.81582424       0.94171006       0.00000000
Si      -0.90823266       2.31112746      -2.60123847       0.00000000
Si      -2.26531998      -1.75211982      -2.45414823       0.00000000
