10
Lattice="16.28999089631971 0.0 0.0 0.0 16.28999089631971 0.0 0.0 0.0 34.642051614445585" Properties=species:S:1:pos:R:3:initial_magmoms:R:1 pbc="T T T"
Si       0.54252216      -0.38188647       2.20621493       0.00000000
Si      -2.01370464      -1.00243773      -0.58164037       0.00000000
Si       0.17881533       2.32331238      -0.42564713       0.00000000
Si       1.64804301      -0.57837645      -1.62114500       0.00000000
Si       1.29420792       1.67826096      -2.41541840       0.00000000
Si       1.80659358       1.41535665       2.98794791       0.00000000
Si       3.48829173      -1.64765205      -0.31995417       0.00000000
Si      -1.17964035      -0.11640834       3.68667848       0.00000000
Si      -1.71828549      -3.14874297      -1.62949373       0.00000000
Si      -3.00089493      -2.31959826       1.10570562       0.00000000
