10
Lattice="16.28999089631971 0.0 0.0 0.0 16.28999089631971 0.0 0.0 0.0 34.642051614445585" Properties=species:S:1:pos:R:3:initial_magmoms:R:1 pbc="T T T"
Si       1.35767376      -1.35700587      -1.35537103       0.00000000
Si      -1.35832536      -1.35668007       1.35713777       0.00000000
Si       1.35684297       1.35830907       1.35727634       0.00000000
Si      -1.36120869       1.36008468      -1.36174517       0.00000000
Si      -0.00588069      -2.70762606      -2.70530671       0.00000000
Si       2.71202436      -2.71259451      -0.00045035       0.00000000
Si       2.71340901       0.00161271       2.71399841       0.00000000
Si       2.71249677       2.71536381      -0.00051963       0.00000000
Si      -0.00092853      -2.71371852       2.71417162       0.00000000
Si      -2.71604799      -2.71337643       0.00003464       0.00000000
