10
Lattice="16.28999089631971 0.0 0.0 0.0 16.28999089631971 0.0 0.0 0.0 34.642051614445585" Properties=species:S:1:pos:R:3:initial_magmoms:R:1 pbc="T T T"
Si       0.30017583      -2.30944959      -0.13312948       0.00000000
Si      -0.14403618       0.39838824       2.41046458       0.00000000
Si      -1.37042883       0.65145339      -1.93281971       0.00000000
Si       2.03051592       1.20611160      -0.85919264       0.00000000
Si       2.25401472       0.19593612       2.63456414       0.00000000
Si       1.54127835      -2.53008135      -2.08621480       0.00000000
Si      -0.64215180       2.71241532       2.58263568       0.00000000
Si      -2.69610903       2.51432892      -1.07418134       0.00000000
Si       3.76424433       0.59828283       0.66190605       0.00000000
Si       1.78667091       3.53958894      -0.12138582       0.00000000
