10
Lattice="16.28999089631971 0.0 0.0 0.0 16.28999089631971 0.0 0.0 0.0 34.642051614445585" Properties=species:S:1:pos:R:3:initial_magmoms:R:1 pbc="T T T"
Si      -1.64804301       0.57837645       1.62114500       0.00000000
Si      -0.85252086      -1.02473874      -1.98454032       0.00000000
Si      -0.35383509       2.25663741      -0.79427340       0.00000000
Si       1.84024872      -1.06927560       1.30119083       0.00000000
Si      -1.46922768       2.90168883       1.19549787       0.00000000
Si      -1.32185205      -3.15082809      -1.03410046       0.00000000
Si      -3.66174765      -0.42406128       1.03950462       0.00000000
Si       0.97117722      -1.01235834      -3.58961139       0.00000000
Si       1.70585622       3.27082023      -1.44578683       0.00000000
Si       3.08094399       0.60154083       2.41825905       0.00000000
