10
Lattice="16.28999089631971 0.0 0.0 0.0 16.28999089631971 0.0 0.0 0.0 34.642051614445585" Properties=species:S:1:pos:R:3:initial_magmoms:R:1 pbc="T T T"
Si      -1.24069527      -1.67081643      -1.11706822       0.00000000
Si       1.61784691       0.59455242      -1.63569467       0.00000000
Si       1.21285796      -1.05401187       1.81212673       0.00000000
Si      -1.26219807       1.96923294       0.67070514       0.00000000
Si       2.74664780       2.33408007      -0.44276031       0.00000000
Si       0.43298820      -3.29864355      -1.78472485       0.00000000
Si       2.31909557       0.57246318       3.07344454       0.00000000
Si      -2.92239342       1.39219227       2.19083385       0.00000000
Si      -0.00786807       3.30533874       2.14444812       0.00000000
Si      -3.08094399      -0.60154083      -2.41825905       0.00000000
