10
Lattice="16.28999089631971 0.0 0.0 0.0 16.28999089631971 0.0 0.0 0.0 34.642051614445585" Properties=species:S:1:pos:R:3:initial_magmoms:R:1 pbc="T T T"
Si      -1.31105178       1.32970383       1.49956865       0.00000000
Si       0.83434122       1.82236230      -1.33080776       0.00000000
Si      -1.65921795      -1.13893164      -1.33274772       0.00000000
Si       1.38514519      -1.36427121       1.47391966       0.00000000
Si      -3.35272635       0.75043143      -1.36125814       0.00000000
Si      -2.65134411       2.62088181       0.11505325       0.00000000
Si       2.66584125       2.67072921      -0.00171478       0.00000000
Si      -2.67986790      -0.01335780       2.85435076       0.00000000
Si       2.74672110      -2.78948331       0.20016189       0.00000000
Si       0.03406239       2.70143586       2.84918909       0.00000000
