10
Lattice="16.28999089631971 0.0 0.0 0.0 16.28999089631971 0.0 0.0 0.0 34.642051614445585" Properties=species:S:1:pos:R:3:initial_magmoms:R:1 pbc="T T T"
Si       1.35582509      -1.35791811      -1.35204539       0.00000000
Si       1.35502525       1.35845568       1.35772669       0.00000000
Si      -1.35945468      -1.35703845       1.35748419       0.00000000
Si      -1.36224027       1.36172997      -1.36254194       0.00000000
Si       2.71114657      -0.00224802      -2.68492678       0.00000000
Si       0.00023415      -2.70993924      -2.69595682       0.00000000
Si       2.71126060      -2.71313208       0.00048499       0.00000000
Si       2.71155382       2.71451673       0.00031178       0.00000000
Si       2.71292218       0.00089595       2.71444876       0.00000000
Si      -0.00304513      -2.71384884       2.71431019       0.00000000
