10
Lattice="16.28999089631971 0.0 0.0 0.0 16.28999089631971 0.0 0.0 0.0 34.642051614445585" Properties=species:S:1:pos:R:3:initial_magmoms:R:1 pbc="T T T"
Si      -1.35656604       1.35669636      -1.35672207       0.00000000
Si      -1.35643572      -1.35698958       1.35706849       0.00000000
Si       1.35790182       1.35663120       1.35720706       0.00000000
Si       1.35749457      -1.35767376      -1.35696456       0.00000000
Si      -2.71340901      -0.00161271      -2.71399841       0.00000000
Si      -0.00091224       2.71375110      -2.71451804       0.00000000
Si      -0.00138465      -2.71420722      -2.71444876       0.00000000
Si       2.71462008      -0.00048870      -2.71427554       0.00000000
Si       2.71446409       2.71474479       0.00034642       0.00000000
Si      -2.71485882       2.71453302       0.00045035       0.00000000
