10
Lattice="16.28999089631971 0.0 0.0 0.0 16.28999089631971 0.0 0.0 0.0 34.642051614445585" Properties=species:S:1:pos:R:3:initial_magmoms:R:1 pbc="T T T"
Si       1.35656227       1.35811359      -1.35686064       0.00000000
Si      -1.35790182      -1.35663120      -1.35720706       0.00000000
Si      -1.35596331       1.35648459       1.36184909       0.00000000
Si       1.35603192      -1.35711990       1.36188374       0.00000000
Si      -2.71433754      -2.71362078      -0.00013857       0.00000000
Si      -2.71446786       0.00006516      -2.71392912       0.00000000
Si      -0.00040725      -2.71430496      -2.71417162       0.00000000
Si       2.71558765      -2.71339272       0.00086605       0.00000000
Si       2.71477641       0.00065160      -2.71451804       0.00000000
Si      -0.00003258       2.71502172      -2.71437947       0.00000000
