10
Lattice="16.28999089631971 0.0 0.0 0.0 16.28999089631971 0.0 0.0 0.0 34.642051614445585" Properties=species:S:1:pos:R:3:initial_magmoms:R:1 pbc="T T T"
Si       0.65267514      -1.78170246       1.33070587       0.00000000
Si       1.52171406       0.69393771      -1.60489786       0.00000000
Si      -1.48981824      -1.44164871      -1.05090187       0.00000000
Si      -1.17252162       1.95686883       0.66114392       0.00000000
Si      -1.47440790      -2.87656965       0.85849980       0.00000000
Si      -3.29364252       0.07415208      -1.45153742       0.00000000
Si       1.61435529      -0.72290133       3.20993430       0.00000000
Si       2.99856546       2.09411208      -0.31614354       0.00000000
Si      -2.48968215       2.39712237      -1.24541709       0.00000000
Si       0.20341323       3.09063654       2.19578767       0.00000000
