10
Lattice="16.28999089631971 0.0 0.0 0.0 16.28999089631971 0.0 0.0 0.0 34.642051614445585" Properties=species:S:1:pos:R:3:initial_magmoms:R:1 pbc="T T T"
Si      -1.88724537       0.82798812       1.05405429       0.00000000
Si      -0.13815549      -0.48176046      -2.27646905       0.00000000
Si       2.05227936       0.85820607       0.77386922       0.00000000
Si       0.24384501      -2.33347734      -0.73780683       0.00000000
Si       1.97757342      -2.94130611       0.78329187       0.00000000
Si       3.49980876      -1.06411167       0.39266787       0.00000000
Si      -2.42882271      -0.82717362       2.70402149       0.00000000
Si      -3.55625361       1.18457689      -0.49164027       0.00000000
Si       1.13841036       1.01089666      -3.54180534       0.00000000
Si       2.49911406       2.95180406      -0.21928431       0.00000000
