10
Lattice="16.28999089631971 0.0 0.0 0.0 16.28999089631971 0.0 0.0 0.0 34.642051614445585" Properties=species:S:1:pos:R:3:initial_magmoms:R:1 pbc="T T T"
Si       0.92409912       1.80729405       1.27131693       0.00000000
Si      -1.66589685      -1.03153167       1.42483327       0.00000000
Si       1.81978848      -1.83005118      -0.02102774       0.00000000
Si      -1.18030824       0.10041156      -2.32185016       0.00000000
Si      -0.32560452      -2.32270965       2.80934867       0.00000000
Si       2.37263849       0.42033087       2.77411076       0.00000000
Si      -2.36727909      -2.90198205      -0.05147812       0.00000000
Si      -2.38785336      -1.99769157      -2.29351295       0.00000000
Si       0.48925386       0.94465710      -3.82625138       0.00000000
Si       3.65128851      -0.98168427       1.30806524       0.00000000
