10
Lattice="16.28999089631971 0.0 0.0 0.0 16.28999089631971 0.0 0.0 0.0 34.642051614445585" Properties=species:S:1:pos:R:3:initial_magmoms:R:1 pbc="T T T"
Si      -1.27583606       1.78101828       0.90183703       0.00000000
Si       0.94731237      -0.47224710       2.14091463       0.00000000
Si      -1.12880089      -1.73952765      -1.19293436       0.00000000
Si       1.94518890       0.47301273      -1.32412388       0.00000000
Si       2.66830200      -1.92344175       1.48039426       0.00000000
Si       1.54899981       2.83040379      -1.66223049       0.00000000
Si      -2.74664780      -2.33408007       0.44276031       0.00000000
Si       0.34469640       3.16951272       1.84981731       0.00000000
Si       0.64154907      -3.35515356      -1.69877788       0.00000000
Si       3.79195362      -0.66881853      -0.19032354       0.00000000
