10
Lattice="16.28999089631971 0.0 0.0 0.0 16.28999089631971 0.0 0.0 0.0 34.642051614445585" Properties=species:S:1:pos:R:3:initial_magmoms:R:1 pbc="T T T"
Si       1.40032098      -1.25134893      -1.38568977       0.00000000
Si      -1.32663805      -1.36326123       1.36517127       0.00000000
Si       1.38789171       1.35314514       1.36305810       0.00000000
Si      -1.40980990       1.31950629      -1.48684115       0.00000000
Si       2.10004164       0.70532442      -2.57260922       0.00000000
Si       0.20237067       2.48991021      -2.73788554       0.00000000
Si      -2.69050597      -2.71549413      -0.01120671       0.00000000
Si      -2.68516373      -0.00645084       2.72431828       0.00000000
Si      -2.68845993       2.72152143      -0.02079564       0.00000000
Si       0.03119535       2.70945054       2.72428364       0.00000000
