10
Lattice="16.28999089631971 0.0 0.0 0.0 16.28999089631971 0.0 0.0 0.0 34.642051614445585" Properties=species:S:1:pos:R:3:initial_magmoms:R:1 pbc="T T T"
Si       1.41608970      -1.24924752      -1.35031328       0.00000000
Si      -1.32203287       1.46378682      -1.34106385       0.00000000
Si      -0.50279085      -1.71523926       1.58567151       0.00000000
Si       1.75308093       1.22383512       1.31820008       0.00000000
Si       2.00208987      -1.05801921       2.32746218       0.00000000
Si       0.09076788      -0.09037692       3.36658574       0.00000000
Si      -2.42874289      -2.59082676       0.35525444       0.00000000
Si       2.80388367      -2.40155325       0.30003498       0.00000000
Si       0.37831896       2.30493726       2.92874461       0.00000000
Si       0.04706181      -2.60618823      -2.71101919       0.00000000
