10
Lattice="16.28999089631971 0.0 0.0 0.0 16.28999089631971 0.0 0.0 0.0 34.642051614445585" Properties=species:S:1:pos:R:3:initial_magmoms:R:1 pbc="T T T"
Si      -0.19424196      -1.32998076      -1.89471343       0.00000000
Si      -1.39854537      -0.99087183       1.61733437       0.00000000
Si       2.34520614       0.18984366       0.25021968       0.00000000
Si      -0.69252048       2.26584126      -0.42027761       0.00000000
Si      -2.43927112      -0.60307209      -2.49204666       0.00000000
Si       0.48531168       3.22652772       1.37127174       0.00000000
Si       1.49706729      -0.40065255      -3.25864105       0.00000000
Si       2.57251680       2.47041108       0.74674448       0.00000000
Si      -2.12041066       0.75057804       2.96425273       0.00000000
Si      -0.04533507       1.86670368       3.27225538       0.00000000
