10
Lattice="16.28999089631971 0.0 0.0 0.0 16.28999089631971 0.0 0.0 0.0 34.642051614445585" Properties=species:S:1:pos:R:3:initial_magmoms:R:1 pbc="T T T"
Si       1.36000717       1.34177472       1.38250270       0.00000000
Si      -1.35312884      -1.37130849       1.38485836       0.00000000
Si       1.27865003      -1.40201514      -1.46604552       0.00000000
Si      -1.44853937       1.38696318      -1.50279382       0.00000000
Si      -0.55285001      -2.25038205      -2.79513849       0.00000000
Si      -2.37263849      -0.42033087      -2.77411076       0.00000000
Si       2.68845993      -2.72152143       0.02079564       0.00000000
Si      -2.73725756       2.69651628       0.00806814       0.00000000
Si       2.71915029       2.71831401       0.00293765       0.00000000
Si      -2.69824301      -2.74304052       0.03523791       0.00000000
