10
Lattice="16.28999089631971 0.0 0.0 0.0 16.28999089631971 0.0 0.0 0.0 34.642051614445585" Properties=species:S:1:pos:R:3:initial_magmoms:R:1 pbc="T T T"
Si       1.35725185       1.35640726      -1.35841953       0.00000000
Si      -1.35973663       1.35904212       1.35661814       0.00000000
Si      -1.35851388      -1.35866745      -1.35866202       0.00000000
Si       1.36072162      -1.35894438       1.35703385       0.00000000
Si       2.68630408       0.00161271       2.71659656       0.00000000
Si      -0.00430219       2.69683786       2.71652728       0.00000000
Si      -2.71458745       2.71163407      -0.00128176       0.00000000
Si      -0.00028182       2.71408083      -2.71590372       0.00000000
Si       2.71345951      -2.71658556      -0.00190531       0.00000000
Si       2.71591930       2.71478456      -0.00218245       0.00000000
