10
Lattice="16.28999089631971 0.0 0.0 0.0 16.28999089631971 0.0 0.0 0.0 34.2284985734139" Properties=species:S:1:pos:R:3:initial_magmoms:R:1 pbc="T T T"
Si       1.48144518      -1.21497336      -1.38471468       0.00000000
Si       0.85371003       1.84459815       1.21589963       0.00000000
Si      -1.25905410       1.47970215      -1.37927235       0.00000000
Si      -0.61141257      -1.85590341       1.50143393       0.00000000
Si      -2.57018733      -2.73802320       0.29936262       0.00000000
Si       0.12106728      -2.58082470      -2.74687277       0.00000000
Si       1.48506156       0.94804542       3.33981339       0.00000000
Si      -2.59397073       0.13626585      -2.74885803       0.00000000
Si      -2.66989842       2.69350263       0.16823316       0.00000000
Si       2.76690537      -2.64311766      -0.02840967       0.00000000
