10
Lattice="16.28999089631971 0.0 0.0 0.0 16.28999089631971 0.0 0.0 0.0 34.2284985734139" Properties=species:S:1:pos:R:3:initial_magmoms:R:1 pbc="T T T"
Si       1.28339136      -1.42904025       1.35936847       0.00000000
Si      -1.43257518       1.29179700       1.36285293       0.00000000
Si      -1.29715641      -1.47354453      -1.33631320       0.00000000
Si       1.59083253       1.06701129      -1.51909725       0.00000000
Si       0.49689387      -2.36670894      -2.54762998       0.00000000
Si       2.61537579       2.54573604       0.07745571       0.00000000
Si       0.14654484       2.19530556      -2.94488616       0.00000000
Si      -2.63427382       2.68843644      -0.09479588       0.00000000
Si       2.62798425      -0.07830603       2.72039359       0.00000000
Si      -0.08491977       2.64005514       2.72610976       0.00000000
