10
Lattice="16.28999089631971 0.0 0.0 0.0 16.28999089631971 0.0 0.0 0.0 34.2284985734139" Properties=species:S:1:pos:R:3:initial_magmoms:R:1 pbc="T T T"
Si      -2.18011906       0.07723089       0.88049439       0.00000000
Si       0.23512171       1.90115703      -1.37235819       0.00000000
Si       0.02699742      -2.16628655      -1.04345636       0.00000000
Si       1.36879494       0.42412644       1.96581223       0.00000000
Si      -1.32723982      -1.16991522       2.82737825       0.00000000
Si       1.03369335      -1.75127274       2.81420027       0.00000000
Si      -2.09927179       2.37948030       1.47668671       0.00000000
Si      -0.91010179       3.57122412      -0.17145065       0.00000000
Si      -1.09087192       1.71626553      -3.29535054       0.00000000
Si       2.20992909      -2.45112861      -2.05908494       0.00000000
