10
Lattice="16.28999089631971 0.0 0.0 0.0 16.28999089631971 0.0 0.0 0.0 34.2284985734139" Properties=species:S:1:pos:R:3:initial_magmoms:R:1 pbc="T T T"
Si      -1.71548428      -0.24446240      -1.57273193       0.00000000
Si      -0.02699742       2.16628655       1.04345636       0.00000000
Si      -0.70069873      -1.70870438       1.56800840       0.00000000
Si       2.18293168      -0.28484205      -1.01562858       0.00000000
Si       2.71763464      -2.00514980       0.51483113       0.00000000
Si       1.64462863      -1.62743357       2.65510612       0.00000000
Si      -1.33288105       1.62886316      -2.97969515       0.00000000
Si      -2.20711648       2.24351744       1.92395075       0.00000000
Si      -3.88565437      -0.22344993      -0.53232191       0.00000000
Si      -1.73910478      -2.38371311      -2.70206764       0.00000000
