10
Lattice="16.28999089631971 0.0 0.0 0.0 16.28999089631971 0.0 0.0 0.0 34.2284985734139" Properties=species:S:1:pos:R:3:initial_magmoms:R:1 pbc="T T T"
Si       1.64551806       1.68663891       0.16652174       0.00000000
Si       0.53470296      -1.72030775       1.53045971       0.00000000
Si      -2.18293168       0.28484205       1.01562858       0.00000000
Si       0.00430056      -0.27685995      -2.41947700       0.00000000
Si      -0.57200706      -3.48730034       0.29453639       0.00000000
Si      -1.46333559       1.41770730      -3.11883408       0.00000000
Si       3.57083316       0.67963998      -0.83277984       0.00000000
Si      -2.20992909       2.45112861       2.05908494       0.00000000
Si      -3.89841596       0.04037965      -0.55710335       0.00000000
Si      -0.53830305      -1.34259152       3.67073470       0.00000000
