10
Lattice="16.28999089631971 0.0 0.0 0.0 16.28999089631971 0.0 0.0 0.0 34.2284985734139" Properties=species:S:1:pos:R:3:initial_magmoms:R:1 pbc="T T T"
Si       1.72085931      -0.84115044       1.41411698       0.00000000
Si      -1.90283490      -1.58781888       0.54183744       0.00000000
Si      -0.80889624       1.84590135       1.57037016       0.00000000
Si       1.08792765       0.40224897      -2.34763134       0.00000000
Si      -1.46684934      -0.07107327      -2.49635425       0.00000000
Si      -3.11816664       1.22127759      -1.18129460       0.00000000
Si       0.43704441      -1.87945875       3.13993052       0.00000000
Si      -2.25318393       2.97419562       0.14458126       0.00000000
Si       1.62222336      -1.85958495      -2.82950042       0.00000000
Si      -0.96992289      -3.23698590       1.88802009       0.00000000
