10
Lattice="16.28999089631971 0.0 0.0 0.0 16.28999089631971 0.0 0.0 0.0 34.2284985734139" Properties=species:S:1:pos:R:3:initial_magmoms:R:1 pbc="T T T"
Si       1.35329175      -1.35761364      -1.36451986       0.00000000
Si      -1.36329381       1.35956717      -1.36428026       0.00000000
Si      -1.36946772      -1.36637766       1.36961991       0.00000000
Si       1.36836000       1.35152154       1.38967782       0.00000000
Si      -0.13232367       2.55184694       2.84894221       0.00000000
Si       2.71278999      -2.71250181      -0.00229331       0.00000000
Si       2.71231758       2.71585466      -0.00051343       0.00000000
Si      -2.71839375      -2.71215972      -0.00503159       0.00000000
Si      -2.71539639       2.71697867      -0.00838599       0.00000000
Si       2.71212210       0.00140630      -2.72113293       0.00000000
