10
Lattice="16.28999089631971 0.0 0.0 0.0 16.28999089631971 0.0 0.0 0.0 34.2284985734139" Properties=species:S:1:pos:R:3:initial_magmoms:R:1 pbc="T T T"
Si       1.14344397       1.90787014       0.50726663       0.00000000
Si      -0.87990435      -0.79233094       1.98672585       0.00000000
Si       1.33890768      -1.58446870      -1.02517833       0.00000000
Si      -1.75669731       0.57165031      -1.51337968       0.00000000
Si      -0.63620595       3.12080725       1.41093373       0.00000000
Si       0.51855957      -1.67828281      -3.17897358       0.00000000
Si      -1.75982499      -1.29541894      -2.93714910       0.00000000
Si      -2.49983082      -2.36278861       1.27692908       0.00000000
Si       2.07914157       2.67480334      -1.50454872       0.00000000
Si       0.35396541      -3.71684599      -0.94884874       0.00000000
