10
Lattice="16.28999089631971 0.0 0.0 0.0 16.28999089631971 0.0 0.0 0.0 34.2284985734139" Properties=species:S:1:pos:R:3:initial_magmoms:R:1 pbc="T T T"
Si       1.55113380       1.41783273      -1.06585448       0.00000000
Si      -1.33333650       1.28754531       1.48574700       0.00000000
Si      -1.31390253      -1.33204959      -1.59674807       0.00000000
Si       1.38476403      -1.42783479       1.46431310       0.00000000
Si       2.57206068      -0.00390960      -2.67860883       0.00000000
Si      -2.72394701       2.61301374       0.07520690       0.00000000
Si      -2.53778978       0.27932463      -2.92197359       0.00000000
Si      -2.71468777      -2.78085124      -0.08751547       0.00000000
Si       0.03694572       2.64168414       2.85523342       0.00000000
Si      -2.67693244      -0.07428240       2.85745827       0.00000000
