10
Lattice="16.28999089631971 0.0 0.0 0.0 16.28999089631971 0.0 0.0 0.0 34.2284985734139" Properties=species:S:1:pos:R:3:initial_magmoms:R:1 pbc="T T T"
Si       1.32962238      -1.38440565      -1.34943535       0.00000000
Si      -1.33558452      -1.36410831       1.38105908       0.00000000
Si       1.37756385       1.35112518       1.37705434       0.00000000
Si      -1.28269089       1.34223084      -1.65037248       0.00000000
Si       2.43320472       0.36460278      -2.63082646       0.00000000
Si       0.60100326       2.14303095      -3.00534057       0.00000000
Si      -2.65535145       2.68372863       0.01326013       0.00000000
Si      -2.67470397      -2.73810465       0.02074590       0.00000000
Si      -2.69557146      -0.00651600       2.73794598       0.00000000
Si       0.01853802       2.70992295       2.73732986       0.00000000
