10
Lattice="16.28999089631971 0.0 0.0 0.0 16.28999089631971 0.0 0.0 0.0 34.2284985734139" Properties=species:S:1:pos:R:3:initial_magmoms:R:1 pbc="T T T"
Si       1.34850249       1.32802596      -1.37109173       0.00000000
Si       1.35084825      -1.35604476       1.35599696       0.00000000
Si      -1.32304122      -1.38223908      -1.36807278       0.00000000
Si      -1.36300059       1.35723393       1.35644193       0.00000000
Si      -0.06817365       2.60395650      -2.75219873       0.00000000
Si      -2.73443940      -0.09324396      -2.64516273       0.00000000
Si       2.70993924       0.00068418       2.71326037       0.00000000
Si       2.70987408      -2.71484253      -0.00427856       0.00000000
Si      -0.00477297      -2.71456560       2.71336306       0.00000000
Si       2.71114470       2.71839375      -0.00082148       0.00000000
