10
Lattice="16.28999089631971 0.0 0.0 0.0 16.28999089631971 0.0 0.0 0.0 34.2284985734139" Properties=species:S:1:pos:R:3:initial_magmoms:R:1 pbc="T T T"
Si       1.35363384       1.35454608       1.35661307       0.00000000
Si      -1.35754344       1.35695700      -1.35729764       0.00000000
Si       1.35731538      -1.35762489      -1.35692113       0.00000000
Si      -1.35853713      -1.35788553       1.35695536       0.00000000
Si       2.71326240       0.00172674       2.71319191       0.00000000
Si      -0.00087966      -2.71388142      -2.71404763       0.00000000
Si       2.71425609       2.71430496       0.00003423       0.00000000
Si       2.71433754      -2.71484253       0.00030806       0.00000000
Si       2.71511946      -0.00065160      -2.71438991       0.00000000
Si       0.00169416       2.71621089       2.71346574       0.00000000
