10
Lattice="16.28999089631971 0.0 0.0 0.0 16.28999089631971 0.0 0.0 0.0 34.2284985734139" Properties=species:S:1:pos:R:3:initial_magmoms:R:1 pbc="T T T"
Si       1.25231004       1.38046740      -1.31543616       0.00000000
Si       0.82034811       0.09381411       2.15379525       0.00000000
Si      -0.08013051      -2.30935185      -0.13037642       0.00000000
Si      -2.27838456       0.38286387       0.24182448       0.00000000
Si      -0.16459416      -2.03856318       2.23012484       0.00000000
Si      -2.34305586       0.60957312      -2.09451146       0.00000000
Si       0.76629789       3.50172188      -0.33585022       0.00000000
Si      -2.27525688       2.24993312       1.66559390       0.00000000
Si      -0.26484282       1.94130929      -3.05010321       0.00000000
Si      -0.51855957       1.67828281       3.17897358       0.00000000
