10
Lattice="16.28999089631971 0.0 0.0 0.0 16.28999089631971 0.0 0.0 0.0 34.2284985734139" Properties=species:S:1:pos:R:3:initial_magmoms:R:1 pbc="T T T"
Si       1.71548428       0.24446240       1.57273193       0.00000000
Si       0.38260323       1.87332556      -1.40696322       0.00000000
Si      -2.17017009       0.02101247       1.04041002       0.00000000
Si      -0.02362050      -2.13925071      -1.12933571       0.00000000
Si      -2.78544339       1.92371054      -0.20088717       0.00000000
Si      -1.75679505       2.01387568      -2.34461923       0.00000000
Si       1.01478555      -1.46424198       3.14074033       0.00000000
Si      -2.34069381      -2.56191105      -1.42845873       0.00000000
Si       2.43508037       1.37732765      -2.56173072       0.00000000
Si       1.01509506      -3.77475042       0.27882551       0.00000000
