10
Lattice="16.28999089631971 0.0 0.0 0.0 16.28999089631971 0.0 0.0 0.0 34.2284985734139" Properties=species:S:1:pos:R:3:initial_magmoms:R:1 pbc="T T T"
Si       2.18011906      -0.07723089      -0.88049439       0.00000000
Si       0.08084727       2.30224941       0.59619232       0.00000000
Si      -1.80617004      -1.57248999      -0.25729577       0.00000000
Si       0.85287924      -1.24714611       1.94688386       0.00000000
Si      -1.37741724       0.96435171      -2.17553036       0.00000000
Si       2.20711648      -2.24351744      -1.92395075       0.00000000
Si      -3.13230636       1.75311351      -0.85951231       0.00000000
Si       3.54891401       0.34689555       1.08531784       0.00000000
Si       2.41524078       1.82392614      -2.25285258       0.00000000
Si      -3.77594055      -0.35391654      -0.10997623       0.00000000
