10
Lattice="16.28999089631971 0.0 0.0 0.0 16.28999089631971 0.0 0.0 0.0 34.2284985734139" Properties=species:S:1:pos:R:3:initial_magmoms:R:1 pbc="T T T"
Si      -1.34208423      -1.34286615      -1.36597457       0.00000000
Si      -1.35493704       1.35930276       1.35791375       0.00000000
Si       1.35893327      -1.35532800       1.35883792       0.00000000
Si       1.36700981       1.35573525      -1.38678209       0.00000000
Si       0.04992885      -2.62169631      -2.77561104       0.00000000
Si      -2.71278999      -2.71438641      -0.00164297       0.00000000
Si      -2.71272483       0.00114030       2.71589597       0.00000000
Si       0.00192222      -2.71402803       2.71627248       0.00000000
Si      -2.71151937       2.71884987       0.00181411       0.00000000
Si       2.71735675      -2.71520091      -0.00171143       0.00000000
