10
Lattice="16.28999089631971 0.0 0.0 0.0 16.28999089631971 0.0 0.0 0.0 34.2284985734139" Properties=species:S:1:pos:R:3:initial_magmoms:R:1 pbc="T T T"
Si       1.64882886      -0.86135004      -1.36339032       0.00000000
Si      -1.18913742      -1.82120571       0.76983359       0.00000000
Si      -1.08458820       1.49679331      -1.44683944       0.00000000
Si       0.92321524       0.95827554       1.98042781       0.00000000
Si      -1.60599852      -0.96430284       2.92116439       0.00000000
Si       0.17832663       1.02835512      -3.38184601       0.00000000
Si       2.52365399       1.10962593      -2.29474828       0.00000000
Si       3.03633287      -2.03668983       0.01629277       0.00000000
Si      -0.95505012       1.40815647       3.34795977       0.00000000
Si       1.98743606       2.97366198       1.29462523       0.00000000
