10
Lattice="10.86 0.0 0.0 0.0 10.86 0.0 0.0 0.0 10.86" Properties=species:S:1:pos:R:3:initial_magmoms:R:1 pbc="T T T"
Si      -1.13380572       1.43176068      -1.44086136       0.00000000
Si       1.58119428       1.43176068       1.27413864       0.00000000
Si       1.58119428      -1.28323932      -1.44086136       0.00000000
Si      -2.43939492      -2.59062042      -0.17181606       0.00000000
Si      -2.49130572       0.07426068      -2.79836136       0.00000000
Si       0.00854682      -2.75884182       2.67128850       0.00000000
Si       0.38424852       2.66848662       2.74306224       0.00000000
Si       0.22369428      -2.64073932      -2.79836136       0.00000000
Si      -2.96461710      -0.16992642       2.53855758       0.00000000
Si      -2.65563924       2.88335172       0.06443238       0.00000000
