10
Lattice="10.86 0.0 0.0 0.0 10.86 0.0 0.0 0.0 10.86" Properties=species:S:1:pos:R:3:initial_magmoms:R:1 pbc="T T T"
Si       1.19694576      -1.23672594      -1.46892360       0.00000000
Si       1.19694576       1.47827406       1.24607640       0.00000000
Si      -1.51805424       1.47827406      -1.46892360       0.00000000
Si       2.55444576      -2.59422594      -0.11142360       0.00000000
Si       2.55444576       0.12077406       2.60357640       0.00000000
Si       2.55444576       0.12077406      -2.82642360       0.00000000
Si       2.55444576       2.83577406      -0.11142360       0.00000000
Si      -0.38424852      -2.66848662      -2.74306224       0.00000000
Si      -0.16055424       2.83577406       2.60357640       0.00000000
Si      -2.95586394       0.06142416       2.48721150       0.00000000
