10
Lattice="16.28999089631971 0.0 0.0 0.0 16.28999089631971 0.0 0.0 0.0 34.433804113860816" Properties=species:S:1:pos:R:3:initial_magmoms:R:1 pbc="T T T"
Si      -1.62957015       1.27464363      -1.13569636       0.00000000
Si       0.36852867      -2.36602802      -0.20629304       0.00000000
Si       2.19414897       0.71353458      -0.70286320       0.00000000
Si      -0.89793738      -0.07464078       2.27325215       0.00000000
Si       2.39068782      -2.20773483       1.08724797       0.00000000
Si       3.18419001       0.05734080       1.32701068       0.00000000
Si      -3.46108906      -0.08237853      -0.53634123       0.00000000
Si      -3.13947885      -0.77846652       1.74958256       0.00000000
Si      -1.03557159       1.39533624      -3.46380159       0.00000000
Si      -1.33555194       2.07350523       3.09697807       0.00000000
