10
Lattice="16.28999089631971 0.0 0.0 0.0 16.28999089631971 0.0 0.0 0.0 34.433804113860816" Properties=species:S:1:pos:R:3:initial_magmoms:R:1 pbc="T T T"
Si      -0.71234541      -0.96633420       2.00315324       0.00000000
Si       1.81687257      -1.05435070      -1.05154010       0.00000000
Si      -2.02215915      -0.15829319      -1.29354101       0.00000000
Si       0.79350219       2.26507563       0.23976271       0.00000000
Si      -2.39068782       2.20773483      -1.08724797       0.00000000
Si      -0.19653885       2.92126941      -1.79011117       0.00000000
Si      -2.02442346       0.86110569       2.79179110       0.00000000
Si       3.16682487       1.88325432       0.53127946       0.00000000
Si       3.71747574      -0.38502392       0.15367815       0.00000000
Si      -2.41170192      -2.53160351       1.69004648       0.00000000
