10
Lattice="16.28999089631971 0.0 0.0 0.0 16.28999089631971 0.0 0.0 0.0 34.433804113860816" Properties=species:S:1:pos:R:3:initial_magmoms:R:1 pbc="T T T"
Si       1.58348574       0.49272363       1.55788947       0.00000000
Si      -0.15597675      -2.10986777      -0.97526918       0.00000000
Si       0.44022096       1.72160865      -1.52720893       0.00000000
Si      -2.01499155       0.44007435       1.22797901       0.00000000
Si      -1.56198294      -2.99707492       0.65837470       0.00000000
Si       3.19657041      -1.10623761       0.99768560       0.00000000
Si       0.49140414       1.91039346       3.07094610       0.00000000
Si      -1.70891874      -1.82241932      -2.69544526       0.00000000
Si      -2.26295793       2.89792584       0.49942817       0.00000000
Si       2.36130066       2.78304876      -0.71457070       0.00000000
