10
Lattice="16.28999089631971 0.0 0.0 0.0 16.28999089631971 0.0 0.0 0.0 34.433804113860816" Properties=species:S:1:pos:R:3:initial_magmoms:R:1 pbc="T T T"
Si      -1.14873822       1.28492262       1.55609891       0.00000000
Si       2.23808310       0.58024980       0.29826578       0.00000000
Si      -0.05914899       0.54126783      -2.27049744       0.00000000
Si      -0.19885203      -2.33354250       0.13343107       0.00000000
Si       1.70196291      -1.08478368      -2.70529333       0.00000000
Si       2.54282013       2.58365916      -0.89066527       0.00000000
Si       3.49449822      -0.74471364      -1.14213549       0.00000000
Si       0.79118901      -2.98973628       2.16330495       0.00000000
Si       0.85558338       2.71746522      -2.60199186       0.00000000
Si       0.82241694      -3.24920340      -1.92009886       0.00000000
