10
Lattice="16.28999089631971 0.0 0.0 0.0 16.28999089631971 0.0 0.0 0.0 34.433804113860816" Properties=species:S:1:pos:R:3:initial_magmoms:R:1 pbc="T T T"
Si      -0.65855583       1.02322377       2.00067400       0.00000000
Si       0.47767167       1.51892847      -1.73253782       0.00000000
Si      -1.64846655      -1.45016838      -0.93264011       0.00000000
Si       1.97912097      -1.32486570       0.32632934       0.00000000
Si       1.16945910      -0.04619844      -3.48466849       0.00000000
Si      -0.33638850      -3.27760827      -1.72127796       0.00000000
Si       1.26252387       2.08466388       2.81331224       0.00000000
Si       1.29857364      -3.52099228      -0.04841396       0.00000000
Si      -1.09877679      -0.69838488       3.52788294       0.00000000
Si      -2.80769553      -2.52080419       0.83243768       0.00000000
