10
Lattice="16.28999089631971 0.0 0.0 0.0 16.28999089631971 0.0 0.0 0.0 34.433804113860816" Properties=species:S:1:pos:R:3:initial_magmoms:R:1 pbc="T T T"
Si      -1.35650088      -1.35764118       1.35641717       0.00000000
Si      -1.35738054       1.35728280      -1.35772565       0.00000000
Si       1.35827649      -1.35799956      -1.35769122       0.00000000
Si       1.35933534       1.35788553       1.35769122       0.00000000
Si      -2.71448415       2.71438641      -0.00044764       0.00000000
Si      -0.00197109       2.71389771      -2.71531357       0.00000000
Si      -2.71480995      -0.00043983      -2.71448716       0.00000000
Si      -0.00379557       2.71402803       2.71589895       0.00000000
Si      -2.71479366      -2.71533123      -0.00006887       0.00000000
Si       0.00254124      -2.71347417      -2.71693196       0.00000000
