10
Lattice="16.28999089631971 0.0 0.0 0.0 16.28999089631971 0.0 0.0 0.0 34.433804113860816" Properties=species:S:1:pos:R:3:initial_magmoms:R:1 pbc="T T T"
Si       1.35684297       1.35672894      -1.35820773       0.00000000
Si       1.35795069      -1.35729909       1.35837990       0.00000000
Si      -1.35933534      -1.35788553      -1.35769122       0.00000000
Si      -1.36313091       1.35614250       1.35820773       0.00000000
Si      -2.70583416       0.00285075       2.71717300       0.00000000
Si       2.71287144      -0.01930365       2.71235227       0.00000000
Si       2.71280628       2.71617831      -0.00375329       0.00000000
Si       2.71379997      -0.00122175      -2.71545131       0.00000000
Si      -0.00195480       2.71415835      -2.71555461       0.00000000
Si       2.71366965      -2.71617831      -0.00151509       0.00000000
