10
Lattice="16.28999089631971 0.0 0.0 0.0 16.28999089631971 0.0 0.0 0.0 34.433804113860816" Properties=species:S:1:pos:R:3:initial_magmoms:R:1 pbc="T T T"
Si       1.34270325       1.35329175      -1.35896527       0.00000000
Si       1.33981992      -1.29784059       1.44198522       0.00000000
Si      -1.23742098       1.41167511       1.42686877       0.00000000
Si      -1.36852290      -1.35938421      -1.35779452       0.00000000
Si      -0.56646846      -1.97845308       2.67881372       0.00000000
Si      -2.44915263      -0.41324472       2.49541918       0.00000000
Si       2.31871860       0.53527311       2.80632217       0.00000000
Si      -2.70858391       2.70554094       0.00988251       0.00000000
Si       2.70583416      -0.00285075      -2.71717300       0.00000000
Si       2.70127296      -2.72645730       0.02692725       0.00000000
