10
Lattice="16.28999089631971 0.0 0.0 0.0 16.28999089631971 0.0 0.0 0.0 34.433804113860816" Properties=species:S:1:pos:R:3:initial_magmoms:R:1 pbc="T T T"
Si       1.77280812       0.80738127      -1.42845273       0.00000000
Si      -0.97889868      -1.83311370      -1.36433695       0.00000000
Si       1.43097876       0.24645141       2.05962471       0.00000000
Si      -1.80954207       1.73555289       0.25470699       0.00000000
Si      -1.63214397      -1.43845587       1.74662126       0.00000000
Si      -1.85619663       0.93336813       2.49376636       0.00000000
Si       0.40102722       2.19548475      -2.79643966       0.00000000
Si       2.86497117      -1.54354266       1.52262924       0.00000000
Si      -2.31871860      -0.53527311      -2.80632217       0.00000000
Si      -2.88518706      -2.51372619      -0.12750845       0.00000000
