10
Lattice="16.28999089631971 0.0 0.0 0.0 16.28999089631971 0.0 0.0 0.0 34.433804113860816" Properties=species:S:1:pos:R:3:initial_magmoms:R:1 pbc="T T T"
Si      -1.35588186       1.35224919       1.35782896       0.00000000
Si       1.35260757      -1.35804843       1.35800113       0.00000000
Si       1.35682668       1.35726651      -1.35841433       0.00000000
Si      -1.35808101      -1.35769005      -1.35834546       0.00000000
Si      -2.69867959      -0.00579924       2.72684891       0.00000000
Si       2.71316466       2.71505430       0.00172169       0.00000000
Si       0.00990432      -2.71134018       2.71696640       0.00000000
Si       2.71378368      -0.00003258      -2.71576121       0.00000000
Si       2.71573848      -2.71419093      -0.00020660       0.00000000
Si      -0.00097740      -2.71479366      -2.71562348       0.00000000
