10
Lattice="16.28999089631971 0.0 0.0 0.0 16.28999089631971 0.0 0.0 0.0 34.433804113860816" Properties=species:S:1:pos:R:3:initial_magmoms:R:1 pbc="T T T"
Si       1.40403184      -1.24449640       1.47561329       0.00000000
Si      -1.30474732       1.47559870       1.45059712       0.00000000
Si       1.80220831       1.16880913      -1.18741631       0.00000000
Si      -1.19183293      -1.57389649      -1.55220242       0.00000000
Si       3.01625314      -0.95984101      -1.56029437       0.00000000
Si       2.65979536      -2.67876574       0.07666346       0.00000000
Si      -2.75927580      -2.66356717      -0.10906914       0.00000000
Si       0.06137909      -2.58726481       2.84291155       0.00000000
Si      -2.63389167       2.84182471      -0.04385492       0.00000000
Si      -2.65444965       0.12507951       2.84012241       0.00000000
