10
Lattice="16.28999089631971 0.0 0.0 0.0 16.28999089631971 0.0 0.0 0.0 34.433804113860816" Properties=species:S:1:pos:R:3:initial_magmoms:R:1 pbc="T T T"
Si      -1.34785089       1.34699308      -1.35380020       0.00000000
Si       1.35597960       1.33282241       1.36444025       0.00000000
Si      -1.35420399      -1.34912151       1.36647185       0.00000000
Si       1.36401057      -1.36650294      -1.34935824       0.00000000
Si       0.50125959      -2.14467624       2.54789633       0.00000000
Si       2.43203184      -0.30459042       2.72185600       0.00000000
Si      -2.70772380       2.70549926       0.01225844       0.00000000
Si       0.00692325       2.70556442      -2.70990746       0.00000000
Si      -2.70682785      -0.00837459      -2.70970086       0.00000000
Si       2.72274318      -0.00876832      -2.70945982       0.00000000
