10
Lattice="16.28999089631971 0.0 0.0 0.0 16.28999089631971 0.0 0.0 0.0 34.433804113860816" Properties=species:S:1:pos:R:3:initial_magmoms:R:1 pbc="T T T"
Si      -0.27722322       1.92722103      -1.36709165       0.00000000
Si      -1.64840139      -1.69409484      -0.31871947       0.00000000
Si      -0.12592170      -0.14318910       2.39012055       0.00000000
Si       2.23202322      -0.26824743      -0.87083139       0.00000000
Si       1.28927205      -0.93726144      -2.91379013       0.00000000
Si      -0.05600502       0.91702926      -3.48480623       0.00000000
Si      -3.20847840      -1.09815777       1.33937243       0.00000000
Si      -0.25252758      -3.62947716      -0.33449016       0.00000000
Si       3.28038246       1.81224621      -0.31699778       0.00000000
Si       1.56745638       3.34484103      -0.93171039       0.00000000
