10
Lattice="16.28999089631971 0.0 0.0 0.0 16.28999089631971 0.0 0.0 0.0 34.433804113860816" Properties=species:S:1:pos:R:3:initial_magmoms:R:1 pbc="T T T"
Si       1.04746329       1.49209884       1.45383046       0.00000000
Si       0.94200183      -2.08854090       0.61925788       0.00000000
Si      -1.99415664      -0.80586630       1.02826283       0.00000000
Si       0.12592170       0.14318910      -2.39012055       0.00000000
Si      -3.08255670      -0.95496867      -1.05074812       0.00000000
Si      -1.52247969      -1.55090574      -2.70884002       0.00000000
Si      -0.96663231      -2.84226291       1.86521134       0.00000000
Si       3.30887367       0.86462433       1.22859882       0.00000000
Si       2.95310007      -1.44234918       1.62858211       0.00000000
Si       0.80039286       0.59153877       3.74536697       0.00000000
