10
Lattice="16.28999089631971 0.0 0.0 0.0 16.28999089631971 0.0 0.0 0.0 34.433804113860816" Properties=species:S:1:pos:R:3:initial_magmoms:R:1 pbc="T T T"
Si      -1.32113529       0.17713909      -2.00432399       0.00000000
Si       1.65494997      -1.67677924       0.50559183       0.00000000
Si      -1.11845511      -1.00572994       1.92326677       0.00000000
Si       1.53652167       1.91354395       0.25236549       0.00000000
Si      -0.40066884       3.27688663       0.28473329       0.00000000
Si       0.45069543       1.19363998      -3.33653418       0.00000000
Si       0.59447097      -2.53832476       2.53797938       0.00000000
Si       2.25543195       2.09125156      -2.00508153       0.00000000
Si       2.17438920      -2.84278486      -1.49508218       0.00000000
Si       3.48320925      -0.65195023       1.69008092       0.00000000
