10
Lattice="16.28999089631971 0.0 0.0 0.0 16.28999089631971 0.0 0.0 0.0 34.433804113860816" Properties=species:S:1:pos:R:3:initial_magmoms:R:1 pbc="T T T"
Si       1.64198313      -0.85846671      -1.50472365       0.00000000
Si      -0.74235159       2.28768615       0.28693705       0.00000000
Si      -2.16982800      -1.07805591       0.21555573       0.00000000
Si       1.72892286      -0.69530607       1.58953415       0.00000000
Si      -2.19631554      -0.46996650      -2.54052749       0.00000000
Si      -0.38628477      -3.18422259      -1.26244727       0.00000000
Si      -1.34123715      -2.83830444       1.46984218       0.00000000
Si       1.93039758      -3.08845368      -0.85048100       0.00000000
Si      -3.42624312       0.24690753       1.65595700       0.00000000
Si       3.75157071       0.43235289       0.84634894       0.00000000
