10
Lattice="16.28999089631971 0.0 0.0 0.0 16.28999089631971 0.0 0.0 0.0 34.433804113860816" Properties=species:S:1:pos:R:3:initial_magmoms:R:1 pbc="T T T"
Si       0.41827833       0.94020993       2.05631906       0.00000000
Si       0.18316476      -2.01201048      -1.10721959       0.00000000
Si      -0.82859085       1.76024853      -1.25428645       0.00000000
Si      -1.15857738      -0.86659542       2.34267074       0.00000000
Si       0.95495238      -0.34591815      -2.73228945       0.00000000
Si       1.34123715       2.83830444      -1.46984218       0.00000000
Si       1.23940836      -3.31906958       0.51822904       0.00000000
Si      -2.07451521      -2.68581375      -1.42821169       0.00000000
Si      -2.08500597       3.08521197       0.18611482       0.00000000
Si       3.07016001       2.14299837       0.11969197       0.00000000
