10
Lattice="16.28999089631971 0.0 0.0 0.0 16.28999089631971 0.0 0.0 0.0 34.433804113860816" Properties=species:S:1:pos:R:3:initial_magmoms:R:1 pbc="T T T"
Si      -1.80512748      -0.61224336      -1.43158621       0.00000000
Si       2.07482472      -1.11316086      -0.52766391       0.00000000
Si       0.53335089       2.18510802      -1.00612188       0.00000000
Si       0.20170278      -0.48325914       2.79485571       0.00000000
Si       2.35473579       2.35136376       0.74201446       0.00000000
Si       3.39571566       0.11016927       1.09014041       0.00000000
Si      -1.49478669       3.37282821      -0.51161775       0.00000000
Si       0.71276895       1.57216419      -3.33698182       0.00000000
Si      -2.01178242      -2.95699338      -1.26199963       0.00000000
Si      -1.15795836       0.09532908      -3.62174954       0.00000000
