10
Lattice="16.28999089631971 0.0 0.0 0.0 16.28999089631971 0.0 0.0 0.0 34.433804113860816" Properties=species:S:1:pos:R:3:initial_magmoms:R:1 pbc="T T T"
Si      -2.13035148      -0.99700339       0.35201698       0.00000000
Si      -0.22309481       0.47503269      -2.33747123       0.00000000
Si       1.44438217       1.85150511       0.59425892       0.00000000
Si       1.89739078      -1.58564416       0.02465462       0.00000000
Si       1.50027316       0.43543170       2.67543339       0.00000000
Si       0.44127655      -3.13832456      -1.03260149       0.00000000
Si      -1.49376808      -2.30727392       2.31064728       0.00000000
Si       3.30339697      -0.69843701      -1.60898926       0.00000000
Si       1.75045498      -0.41098856      -3.32916534       0.00000000
Si       3.45937372       1.41143076      -0.63372009       0.00000000
