10
Lattice="16.28999089631971 0.0 0.0 0.0 16.28999089631971 0.0 0.0 0.0 34.433804113860816" Properties=species:S:1:pos:R:3:initial_magmoms:R:1 pbc="T T T"
Si       1.35881406      -1.35943308      -1.36137564       0.00000000
Si      -1.35625653       1.35868374      -1.36543883       0.00000000
Si      -1.35619137      -1.37679822       1.35066672       0.00000000
Si       1.38554595       1.36694277       1.36812467       0.00000000
Si       0.07540641      -2.67512751       2.71145699       0.00000000
Si      -2.70585045       2.70378162      -0.00764431       0.00000000
Si      -2.68337025      -0.01198944       2.73335690       0.00000000
Si      -2.71111212      -2.71479366      -0.00330565       0.00000000
Si       2.71181259       2.71538010      -0.00688676       0.00000000
Si      -2.71221984      -0.00076563      -2.71989327       0.00000000
