10
Lattice="16.28999089631971 0.0 0.0 0.0 16.28999089631971 0.0 0.0 0.0 34.433804113860816" Properties=species:S:1:pos:R:3:initial_magmoms:R:1 pbc="T T T"
Si      -0.03824892      -0.67865769      -2.21908775       0.00000000
Si       0.15190425      -2.06977482       1.08890080       0.00000000
Si      -2.00425644       1.04902713       0.63258377       0.00000000
Si       1.69069023       1.62440622       0.23800659       0.00000000
Si      -1.84759551       2.79476127      -0.89341998       0.00000000
Si       0.26555958       3.55750794      -0.17592240       0.00000000
Si       2.25202734       1.25920071       2.54490058       0.00000000
Si      -0.02751381      -1.45683099       3.41976073       0.00000000
Si       2.37306204      -2.77097787       0.81587501       0.00000000
Si      -1.98285138      -1.99524807      -2.52272520       0.00000000
