10
Lattice="16.28999089631971 0.0 0.0 0.0 16.28999089631971 0.0 0.0 0.0 34.433804113860816" Properties=species:S:1:pos:R:3:initial_magmoms:R:1 pbc="T T T"
Si      -1.30161987       1.41618624       1.35427194       0.00000000
Si       1.42055316      -1.31251788       1.34925838       0.00000000
Si       1.14779340       1.66439721      -1.23021686       0.00000000
Si      -1.59456294      -1.18851840      -1.36355482       0.00000000
Si      -2.79450063       1.00525590      -1.81009798       0.00000000
Si      -2.37602682       2.87627221      -0.22703941       0.00000000
Si      -2.65017123       0.05077593       2.71978997       0.00000000
Si       0.06853203      -2.66853006       2.71383292       0.00000000
Si       2.77804773      -2.61653238      -0.10983701       0.00000000
Si       0.06375906       2.76169650       2.71923903       0.00000000
