10
Lattice="16.28999089631971 0.0 0.0 0.0 16.28999089631971 0.0 0.0 0.0 34.433804113860816" Properties=species:S:1:pos:R:3:initial_magmoms:R:1 pbc="T T T"
Si       1.32626664       1.34843733      -1.37501143       0.00000000
Si      -1.38554595      -1.36694277      -1.36812467       0.00000000
Si      -1.18874646       1.41100722       1.50820146       0.00000000
Si       1.44101340      -1.32041853       1.40569197       0.00000000
Si      -0.42785685      -2.19032082       2.61614416       0.00000000
Si      -2.23537896      -0.44154045       2.61239088       0.00000000
Si       2.68436394       2.70839169       0.02059143       0.00000000
Si       2.68359831      -2.72748357      -0.01670040       0.00000000
Si       2.68900659      -0.00816129      -2.72950031       0.00000000
Si      -2.72701116       2.69361666       0.01236174       0.00000000
