10
Lattice="16.28999089631971 0.0 0.0 0.0 16.28999089631971 0.0 0.0 0.0 34.433804113860816" Properties=species:S:1:pos:R:3:initial_magmoms:R:1 pbc="T T T"
Si       1.34597754       1.36971207      -1.38441187       0.00000000
Si      -1.36438524      -1.35677781      -1.38813072       0.00000000
Si      -1.66215015       1.07310375       1.33097057       0.00000000
Si       1.53826470      -1.28260944       1.49583972       0.00000000
Si      -2.71368594      -2.68444539      -0.01511645       0.00000000
Si       2.70360243       2.70523373      -0.01928294       0.00000000
Si       2.72701116      -2.69361666      -0.01236174       0.00000000
Si       2.70070281       0.00941562      -2.74303280       0.00000000
Si      -3.59292240      -0.76698207       1.15701090       0.00000000
Si      -0.01479132      -2.70187569      -2.74592524       0.00000000
