10
Lattice="16.28999089631971 0.0 0.0 0.0 16.28999089631971 0.0 0.0 0.0 34.433804113860816" Properties=species:S:1:pos:R:3:initial_magmoms:R:1 pbc="T T T"
Si       0.92913110       1.94131188      -0.98393135       0.00000000
Si      -1.32208893       1.38015396       1.45348267       0.00000000
Si       1.40976755      -1.32286203       1.45267692       0.00000000
Si      -1.31974317      -1.40724423      -1.51517573       0.00000000
Si      -2.64112281      -2.68218108      -0.05448464       0.00000000
Si      -2.65628880       2.81108385      -0.01483753       0.00000000
Si      -2.66440122       0.03073923       2.83207523       0.00000000
Si       0.05320640      -2.68566714       2.82573940       0.00000000
Si       2.86796690      -2.65026897       0.10952366       0.00000000
Si       0.05575415       2.74668948       2.82983703       0.00000000
