10
Lattice="16.28999089631971 0.0 0.0 0.0 16.28999089631971 0.0 0.0 0.0 34.433804113860816" Properties=species:S:1:pos:R:3:initial_magmoms:R:1 pbc="T T T"
Si       0.15926733       0.84488085       2.18227799       0.00000000
Si      -2.11315509      -0.76274667      -0.71749758       0.00000000
Si       0.11776041       1.81115478      -1.52965373       0.00000000
Si       1.42513065      -1.93310172       0.41392899       0.00000000
Si      -2.26981602      -2.50848081       0.80850617       0.00000000
Si       2.48777622       1.25960796       2.17081153       0.00000000
Si      -1.60570530      -1.09872792      -2.97460026       0.00000000
Si      -0.26555958      -3.55750794       0.17592240       0.00000000
Si      -0.12992904      -1.07828397       3.54193194       0.00000000
Si       2.36450979       2.03457213      -2.08551895       0.00000000
