10
Lattice="16.28999089631971 0.0 0.0 0.0 16.28999089631971 0.0 0.0 0.0 34.433804113860816" Properties=species:S:1:pos:R:3:initial_magmoms:R:1 pbc="T T T"
Si      -1.35656604      -1.35514225      -1.35700254       0.00000000
Si      -1.35307998       1.35681365       1.36134121       0.00000000
Si       1.35855465      -1.35462075       1.35882754       0.00000000
Si       1.35871845       1.35982730      -1.35693368       0.00000000
Si       2.69980101      -0.00156873       2.72240694       0.00000000
Si       2.71693972      -2.70994317       0.00127405       0.00000000
Si       0.00104256      -2.71248441      -2.71455603       0.00000000
Si      -2.71389771       0.00295175      -2.71421169       0.00000000
Si      -2.71417464      -2.71430889       0.00003443       0.00000000
Si       2.71344878       2.71750106       0.00037877       0.00000000
