10
Lattice="16.28999089631971 0.0 0.0 0.0 16.28999089631971 0.0 0.0 0.0 34.433804113860816" Properties=species:S:1:pos:R:3:initial_magmoms:R:1 pbc="T T T"
Si       1.35307998      -1.35681365      -1.36134121       0.00000000
Si       1.36013355       1.37419182       1.34839409       0.00000000
Si      -1.36003581       1.36251189      -1.36037706       0.00000000
Si      -1.35819504      -1.37530443       1.36244309       0.00000000
Si      -0.13115079       2.58087357       2.71011407       0.00000000
Si       2.71163463      -2.71143440      -0.00251367       0.00000000
Si      -2.71581993      -2.71082609      -0.00268584       0.00000000
Si       2.71179843       0.00301365      -2.71827488       0.00000000
Si      -0.00348606      -2.71195590      -2.71834375       0.00000000
Si       2.71295762       2.71824714      -0.00729997       0.00000000
