10
Lattice="16.28999089631971 0.0 0.0 0.0 16.28999089631971 0.0 0.0 0.0 34.433804113860816" Properties=species:S:1:pos:R:3:initial_magmoms:R:1 pbc="T T T"
Si      -1.35707103       1.35734796      -1.35762235       0.00000000
Si       1.35829278       1.35769005       1.35648604       0.00000000
Si       1.35801585      -1.35785295      -1.35762235       0.00000000
Si      -1.35993807      -1.35749457       1.35724358       0.00000000
Si      -2.71350920       0.00006516       2.71090605       0.00000000
Si       2.71292031      -0.00164529       2.71589895       0.00000000
Si      -0.00001629       2.71489140      -2.71441830       0.00000000
Si      -2.71441783       2.71505430      -0.00092971       0.00000000
Si      -2.71466840      -2.71516833      -0.00006887       0.00000000
Si       2.71446786      -2.71546155      -0.00086085       0.00000000
