10
Lattice="16.28999089631971 0.0 0.0 0.0 16.28999089631971 0.0 0.0 0.0 34.433804113860816" Properties=species:S:1:pos:R:3:initial_magmoms:R:1 pbc="T T T"
Si      -1.35681039      -1.35544203       1.35844877       0.00000000
Si       1.35739683      -1.35752715      -1.35714028       0.00000000
Si      -1.35746199       1.35755973      -1.35734688       0.00000000
Si       1.35992178       1.35703845       1.35707141       0.00000000
Si       2.71618304       0.00029322       2.71152585       0.00000000
Si       0.00114030       2.71274112      -2.71503810       0.00000000
Si      -0.00058644      -2.71420722      -2.71424613       0.00000000
Si       2.71361745       0.00158013      -2.71490037       0.00000000
Si       2.71502385      -2.71494027       0.00055094       0.00000000
Si      -2.71515204      -2.71485882      -0.00003443       0.00000000
