10
Lattice="16.28999089631971 0.0 0.0 0.0 16.28999089631971 0.0 0.0 0.0 34.433804113860816" Properties=species:S:1:pos:R:3:initial_magmoms:R:1 pbc="T T T"
Si       0.51813603       0.08961129       2.25755033       0.00000000
Si       1.96520931      -0.73541205      -1.03614818       0.00000000
Si      -0.28841445       2.22998697      -0.65424264       0.00000000
Si      -2.31668235      -0.09576891      -0.41196626       0.00000000
Si      -0.20147472       2.39314761       2.44001516       0.00000000
Si      -2.26417968      -0.92382219      -2.66194115       0.00000000
Si       2.95100585      -1.97136693       0.80244582       0.00000000
Si      -0.31749210      -3.48931637      -1.22422572       0.00000000
Si      -1.93039758       3.08845368       0.85048100       0.00000000
Si       1.26991953      -2.40862311      -2.57406603       0.00000000
