10
Lattice="16.28999089631971 0.0 0.0 0.0 16.28999089631971 0.0 0.0 0.0 34.433804113860816" Properties=species:S:1:pos:R:3:initial_magmoms:R:1 pbc="T T T"
Si      -0.68483160       0.15078024       2.19112748       0.00000000
Si       0.71961075      -2.30353632      -0.18246483       0.00000000
Si       2.02264785       1.12765896      -0.74318521       0.00000000
Si      -1.72892286       0.69530607      -1.58953415       0.00000000
Si      -0.08693973      -0.16316064      -3.09425780       0.00000000
Si       0.20147472      -2.39314761      -2.44001516       0.00000000
Si      -2.65188168      -1.20278844       1.93662709       0.00000000
Si       1.13054229      -0.70666020       3.36149870       0.00000000
Si      -3.07016001      -2.14299837      -0.11969197       0.00000000
Si      -2.15606295       1.98593019       2.45079294       0.00000000
