10
Lattice="16.28999089631971 0.0 0.0 0.0 16.28999089631971 0.0 0.0 0.0 34.433804113860816" Properties=species:S:1:pos:R:3:initial_magmoms:R:1 pbc="T T T"
Si       1.35690813      -1.35725022      -1.35751905       0.00000000
Si      -1.35773892       1.35762489      -1.35765679       0.00000000
Si       1.35711990       1.35979146       1.35820773       0.00000000
Si      -1.35861858      -1.35842310       1.35820773       0.00000000
Si      -0.00562005       2.71639008       2.71269660       0.00000000
Si       2.71485918       2.71467963      -0.00013774       0.00000000
Si       2.71494862      -2.71464705      -0.00079198       0.00000000
Si       0.00099369       2.71428867      -2.71562348       0.00000000
Si      -2.71541268       2.71454931      -0.00082641       0.00000000
Si       2.71539509       0.00084708      -2.71486593       0.00000000
