10
Lattice="16.28999089631971 0.0 0.0 0.0 16.28999089631971 0.0 0.0 0.0 34.433804113860816" Properties=species:S:1:pos:R:3:initial_magmoms:R:1 pbc="T T T"
Si      -1.35705474      -1.35617508      -1.35831103       0.00000000
Si       1.35861858       1.35842310      -1.35820773       0.00000000
Si       1.35984033      -1.35721764       1.35865537       0.00000000
Si      -1.35881406       1.35943308       1.36137564       0.00000000
Si       2.71033020      -0.00110772       2.71279991       0.00000000
Si      -2.71500543      -0.01736514       2.71204236       0.00000000
Si      -2.71420722      -2.71423980      -0.00182499       0.00000000
Si      -2.71407690       0.00071676      -2.71576121       0.00000000
Si       0.00083079      -2.71394658      -2.71603668       0.00000000
Si       2.71552671       0.00117288      -2.71572678       0.00000000
