10
Lattice="16.28999089631971 0.0 0.0 0.0 16.28999089631971 0.0 0.0 0.0 34.433804113860816" Properties=species:S:1:pos:R:3:initial_magmoms:R:1 pbc="T T T"
Si       1.43853147      -1.18521153      -1.40276510       0.00000000
Si       1.36727901       1.38280923       1.31705931       0.00000000
Si      -0.99538416      -1.50723225       1.57958278       0.00000000
Si      -1.29806865       1.53922581      -1.37941896       0.00000000
Si      -0.48120660       1.50881238       2.81121177       0.00000000
Si      -2.54141919      -2.48958441       0.00568158       0.00000000
Si       0.06985152      -2.53948068      -2.76958128       0.00000000
Si       2.90969441      -2.47907736       0.01422117       0.00000000
Si      -2.65616595       0.17927145      -2.77502182       0.00000000
Si      -2.28975498      -0.03240081       3.09890637       0.00000000
