10
Lattice="16.28999089631971 0.0 0.0 0.0 16.28999089631971 0.0 0.0 0.0 34.433804113860816" Properties=species:S:1:pos:R:3:initial_magmoms:R:1 pbc="T T T"
Si       1.16955684       1.32679836      -1.56419086       0.00000000
Si      -0.09892917      -2.07555777      -1.16379436       0.00000000
Si      -1.98114093       0.85803732       1.13531759       0.00000000
Si       1.09551879       1.04433628       2.10118634       0.00000000
Si      -0.87904098       2.71817288       2.12625416       0.00000000
Si      -2.42743806      -2.49028488      -1.15232790       0.00000000
Si      -0.43844535       2.73011345      -2.67041187       0.00000000
Si      -3.53584224       1.42040885      -0.55500436       0.00000000
Si       2.34290503      -0.05615163      -3.07401071       0.00000000
Si       3.66714683      -1.09698489       0.71656786       0.00000000
