10
Lattice="16.28999089631971 0.0 0.0 0.0 16.28999089631971 0.0 0.0 0.0 34.433804113860816" Properties=species:S:1:pos:R:3:initial_magmoms:R:1 pbc="T T T"
Si      -1.83151891      -1.35702216       0.59935513       0.00000000
Si       1.62957015      -1.27464363       1.13569636       0.00000000
Si      -0.83790873       2.00484288       0.93511934       0.00000000
Si       0.59399856       0.12069261      -2.32810523       0.00000000
Si      -1.72169010      -2.95404489      -1.10632431       0.00000000
Si       0.73163277      -1.34928441       3.40894851       0.00000000
Si      -1.47326923       0.26122644      -3.44352007       0.00000000
Si      -2.85152282       2.53812861      -0.21194018       0.00000000
Si      -1.50990870      -2.05311015       2.88527893       0.00000000
Si      -1.64457976       1.62039888       3.12211476       0.00000000
