10
Lattice="16.28999089631971 0.0 0.0 0.0 16.28999089631971 0.0 0.0 0.0 34.433804113860816" Properties=species:S:1:pos:R:3:initial_magmoms:R:1 pbc="T T T"
Si       1.79015697       0.50889960       1.45882336       0.00000000
Si       0.74402946      -0.22633326      -2.23916267       0.00000000
Si      -1.00094394       2.14547445      -0.18924829       0.00000000
Si      -1.44569840      -1.62781083       1.00009597       0.00000000
Si      -1.52344732      -0.59847831       3.08964367       0.00000000
Si       0.73257759       0.00324171       3.50284955       0.00000000
Si      -1.19456851       0.59520402      -3.34972234       0.00000000
Si       2.27154276       2.82983364       0.90678030       0.00000000
Si       0.09857079       3.63843666       1.21589274       0.00000000
Si      -1.30228450       2.73668742      -2.40995443       0.00000000
