10
Lattice="16.28999089631971 0.0 0.0 0.0 16.28999089631971 0.0 0.0 0.0 34.433804113860816" Properties=species:S:1:pos:R:3:initial_magmoms:R:1 pbc="T T T"
Si      -1.35722253       1.35545832      -1.36044593       0.00000000
Si       1.35852084      -1.35899325      -1.36065253       0.00000000
Si       1.36852290       1.35938421       1.35779452       0.00000000
Si      -1.36025735      -1.38381921       1.36519779       0.00000000
Si      -2.70874097       2.71065600       0.00086085       0.00000000
Si       2.71122615       2.71267596      -0.00117075       0.00000000
Si      -2.71328114      -2.71661814      -0.00623252       0.00000000
Si       0.00053757       2.71303434      -2.71751734       0.00000000
Si       2.71314837      -2.71832859      -0.00123962       0.00000000
Si       2.71502172      -0.00135207      -2.71706970       0.00000000
