10
Lattice="16.28999089631971 0.0 0.0 0.0 16.28999089631971 0.0 0.0 0.0 34.433804113860816" Properties=species:S:1:pos:R:3:initial_magmoms:R:1 pbc="T T T"
Si       1.35753855      -1.35619357       1.35745018       0.00000000
Si      -1.35771143      -1.35786938      -1.35669264       0.00000000
Si       1.35674034       1.35818527      -1.35741575       0.00000000
Si      -1.35784661       1.35803866       1.35803556       0.00000000
Si       0.00125107      -2.71125940      -2.71472820       0.00000000
Si       0.00037467      -2.71173181       2.71624329       0.00000000
Si       2.71426749      -2.71438708       0.00024104       0.00000000
Si      -2.71552249      -2.71427305       0.00041321       0.00000000
Si       2.71651551      -0.00082590       2.71335085       0.00000000
Si       2.71483764       2.71535404       0.00048207       0.00000000
