10
Lattice="16.28999089631971 0.0 0.0 0.0 16.28999089631971 0.0 0.0 0.0 34.433804113860816" Properties=species:S:1:pos:R:3:initial_magmoms:R:1 pbc="T T T"
Si       0.70373777      -2.09738637       0.77810111       0.00000000
Si      -0.89439268       0.36900108      -2.16774692       0.00000000
Si      -2.00278775       0.26476137       1.29020093       0.00000000
Si       1.78350413       1.60371792       0.54119640       0.00000000
Si      -0.39577695      -3.59034858      -0.62703992       0.00000000
Si      -2.18319950       2.33763129      -1.92209602       0.00000000
Si       0.92950088       0.35694648      -3.63269950       0.00000000
Si      -1.18664668      -0.34710732       3.58149640       0.00000000
Si       0.58260533       3.10972842       2.16674833       0.00000000
Si      -3.18347066       2.13115554       0.28638611       0.00000000
