10
Lattice="16.28999089631971 0.0 0.0 0.0 16.28999089631971 0.0 0.0 0.0 34.433804113860816" Properties=species:S:1:pos:R:3:initial_magmoms:R:1 pbc="T T T"
Si       1.37005449      -1.41278283      -1.29449827       0.00000000
Si      -1.33370174      -1.37266056       1.37446394       0.00000000
Si       1.38313698       1.34842104       1.37408516       0.00000000
Si      -1.43751791       1.27211868      -1.57789552       0.00000000
Si      -2.68336082       2.70371646      -0.01364957       0.00000000
Si      -2.68459886      -2.70848943      -0.00517196       0.00000000
Si       2.72578974       2.69118945       0.00678691       0.00000000
Si      -2.68966505      -0.01311345       2.73115658       0.00000000
Si       0.12992497       2.36178936      -3.02102881       0.00000000
Si       0.02417448       2.70181106       2.73212072       0.00000000
