10
Lattice="16.28999089631971 0.0 0.0 0.0 16.28999089631971 0.0 0.0 0.0 34.433804113860816" Properties=species:S:1:pos:R:3:initial_magmoms:R:1 pbc="T T T"
Si       1.35588186      -1.35224919      -1.35782896       0.00000000
Si      -1.34279773      -1.35804843       1.36901995       0.00000000
Si      -1.35895578       1.36539522      -1.35765679       0.00000000
Si       1.35083196       1.38018654       1.35972282       0.00000000
Si       2.70848943      -2.71029762       0.00017217       0.00000000
Si      -2.71147769      -2.71231758       0.00220376       0.00000000
Si      -0.00219915      -2.70993924      -2.71617442       0.00000000
Si       2.71270854       0.00501732      -2.71624329       0.00000000
Si      -2.71701593       0.00472410      -2.71607112       0.00000000
Si       2.70503595       2.72930805      -0.00674903       0.00000000
