10
Lattice="16.2900001489832 0.0 0.0 0.0 16.2900001489832 0.0 0.0 0.0 29.17113846505263" Properties=species:S:1:pos:R:3:initial_magmoms:R:1 pbc="T T T"
Si      -1.49638801       1.32694757      -1.27861476       0.00000000
Si       1.27606087       1.43805515       1.40833297       0.00000000
Si      -1.30432891      -1.18767133       1.61416453       0.00000000
Si       1.39266469      -1.36695907      -1.49869641       0.00000000
Si      -2.66128348      -2.53905716       0.30559393       0.00000000
Si      -0.14986800       2.69868287      -2.53929189       0.00000000
H        0.82088569       1.71839628      -3.19816901       0.00000000
Si       2.69353523      -2.63665055       0.03726905       0.00000000
Si       2.63619443       2.81626410       0.03199199       0.00000000
Si       2.69529455       0.12302830       2.77637185       0.00000000
