10
Lattice="16.2900001489832 0.0 0.0 0.0 16.2900001489832 0.0 0.0 0.0 29.17113846505263" Properties=species:S:1:pos:R:3:initial_magmoms:R:1 pbc="T T T"
Si      -1.97922850      -1.07126299      -0.49891398       0.00000000
Si      -0.69325077       1.48130347       1.63326287       0.00000000
Si       0.21427052       1.22850385      -2.08474458       0.00000000
Si       1.36129667      -1.54564408       1.31083428       0.00000000
Si       3.01155513      -0.34780779       0.18759959       0.00000000
Si       2.31769887      -1.38611611      -1.84116558       0.00000000
Si       0.44501837      -0.83924452      -3.20897109       0.00000000
Si      -1.97377135      -0.87302998      -2.81320625       0.00000000
Si      -1.82124808      -2.96334651       0.89260767       0.00000000
Si      -2.47286438       0.33049413       2.66349997       0.00000000
