10
Lattice="16.2900001489832 0.0 0.0 0.0 16.2900001489832 0.0 0.0 0.0 29.17113846505263" Properties=species:S:1:pos:R:3:initial_magmoms:R:1 pbc="T T T"
Si       1.39097053       1.40200701      -1.27638316       0.00000000
Si      -1.27786906       1.31365005       1.48393581       0.00000000
Si       1.43923780      -1.37564979       1.26774851       0.00000000
Si      -1.33714837      -1.36717276      -1.42113035       0.00000000
Si      -2.64147239       2.62304026       0.02371614       0.00000000
Si      -2.63596637      -2.63452471       0.08392537       0.00000000
Si       2.67675653      -0.02452948      -2.70891943       0.00000000
Si       0.16107552      -2.66518249       2.71621222       0.00000000
Si       0.02603142       2.66733277      -2.75763523       0.00000000
Si       2.70674642       2.75904547       0.25842712       0.00000000
