10
Lattice="16.2900001489832 0.0 0.0 0.0 16.2900001489832 0.0 0.0 0.0 29.17113846505263" Properties=species:S:1:pos:R:3:initial_magmoms:R:1 pbc="T T T"
Si       2.05431563       0.42704235      -0.95856361       0.00000000
Si      -0.74142307      -2.13913766      -0.54375002       0.00000000
Si      -1.50703678       1.10385928      -1.54391167       0.00000000
Si       0.49109463       0.37727640       2.48438918       0.00000000
H        0.95948101       2.35502903       0.59220328       0.00000000
H        0.51966729       2.91048546       0.26221936       0.00000000
H       -2.81934291       0.56321047      -0.99704034       0.00000000
Si       3.50451660       0.28992942       0.80138952       0.00000000
Si      -3.00377829      -2.32285628       0.00390893       0.00000000
Si      -1.69701077       3.34422300      -0.91658634       0.00000000
