10
Lattice="16.2900001489832 0.0 0.0 0.0 16.2900001489832 0.0 0.0 0.0 29.17113846505263" Properties=species:S:1:pos:R:3:initial_magmoms:R:1 pbc="T T T"
Si       1.59969430      -1.70046425      -0.26455305       0.00000000
Si       1.03431727       2.15792003      -0.02467878       0.00000000
Si      -0.83618200      -0.12562848       2.27050639       0.00000000
Si      -1.52474401       0.08615781      -1.93042926       0.00000000
H        2.54203823       0.12393432       2.12870549       0.00000000
Si      -2.72114678       1.26151390       1.88378461       0.00000000
Si       3.21025404      -0.93866239       1.27912525       0.00000000
Si      -0.63992008       3.61812306      -0.71390527       0.00000000
Si       2.72748359      -1.26944713      -2.29148044       0.00000000
Si      -2.13602627      -2.15672760       2.26397206       0.00000000
