10
Lattice="16.2900001489832 0.0 0.0 0.0 16.2900001489832 0.0 0.0 0.0 29.17113846505263" Properties=species:S:1:pos:R:3:initial_magmoms:R:1 pbc="T T T"
Si       1.56427984      -1.12341868      -1.35424093       0.00000000
Si       0.45074430       1.15860183       2.01248767       0.00000000
Si      -1.71237224       0.58837852      -1.58871854       0.00000000
Si      -0.17809857      -1.96144145       1.40782831       0.00000000
H       -1.26587962      -1.74932936      -1.67672787       0.00000000
Si       1.27985644      -0.82158127       2.94278445       0.00000000
Si       0.78063310      -3.20930433      -0.39386871       0.00000000
Si      -1.89021994       1.61711320       2.25644590       0.00000000
Si      -1.19145061       2.87771486      -1.55770962       0.00000000
Si       3.62810883      -0.71261746      -0.38039165       0.00000000
