10
Lattice="16.2900001489832 0.0 0.0 0.0 16.2900001489832 0.0 0.0 0.0 29.17113846505263" Properties=species:S:1:pos:R:3:initial_magmoms:R:1 pbc="T T T"
Si       0.56749474      -0.71679259      -1.23531020       0.00000000
Si      -0.60417982       0.67968397       2.19276531       0.00000000
Si       1.47958813      -2.42033564       0.03765994       0.00000000
Si       1.97977259       0.69276484      -2.43824044       0.00000000
Si      -2.29107449       1.99412408      -1.25873462       0.00000000
Si      -0.97042789      -2.00326277      -2.48048025       0.00000000
Si      -0.75662164      -3.24998535       0.82598079       0.00000000
H       -1.97859971       0.44887095       2.79908742       0.00000000
Si       0.68953942      -0.87210145       3.34508362       0.00000000
Si       2.39904461      -1.64126638       2.00429058       0.00000000
