10
Lattice="16.2900001489832 0.0 0.0 0.0 16.2900001489832 0.0 0.0 0.0 29.17113846505263" Properties=species:S:1:pos:R:3:initial_magmoms:R:1 pbc="T T T"
Si       0.62359750       2.28061631       0.10933343       0.00000000
Si      -2.21783465      -0.47219823       0.69838623       0.00000000
Si       0.27075609      -0.05429457      -2.44987972       0.00000000
Si       1.22083777      -1.18635184       1.83501047       0.00000000
H        2.48743415      -0.48803211      -1.27107402       0.00000000
H        2.92724787      -1.04348854      -0.94109010       0.00000000
Si      -1.85864015      -0.23926752       3.03735728       0.00000000
Si       2.71474481       2.46987353      -0.99345229       0.00000000
Si       0.45895446       2.99203320       2.35215641       0.00000000
Si       0.46073007      -2.29465829      -3.07720505       0.00000000
