10
Lattice="16.2900001489832 0.0 0.0 0.0 16.2900001489832 0.0 0.0 0.0 29.17113846505263" Properties=species:S:1:pos:R:3:initial_magmoms:R:1 pbc="T T T"
Si       1.13505463       1.47585935      -1.48075616       0.00000000
Si      -1.43956360      -1.18393929      -1.49662526       0.00000000
Si      -0.83515573       0.90124589       2.06452898       0.00000000
Si       1.86121397      -1.22813406       1.35838323       0.00000000
Si       0.32101074      -0.78413708       3.21935601       0.00000000
Si       2.84584674       2.26998057      -0.10586206       0.00000000
Si       3.65844081       0.15704049       0.56589092       0.00000000
Si      -0.09827757      -2.38281814      -2.98992501       0.00000000
Si       2.46120725       0.17125840      -2.93082428       0.00000000
Si      -2.86505265       0.30320089      -2.71501620       0.00000000
