10
Lattice="16.2900001489832 0.0 0.0 0.0 16.2900001489832 0.0 0.0 0.0 29.17113846505263" Properties=species:S:1:pos:R:3:initial_magmoms:R:1 pbc="T T T"
Si       1.25483500      -0.63635257      -1.84230325       0.00000000
Si      -1.86281690       1.41033934      -0.30918490       0.00000000
Si       1.65123587       1.39447288       0.94473649       0.00000000
Si      -0.97977998      -2.10152405       0.63196354       0.00000000
Si      -0.47257290      -1.89573248      -2.82499139       0.00000000
Si      -2.84990295       0.80822836       1.75966141       0.00000000
Si       1.65574820       1.41801193      -2.80562176       0.00000000
Si       0.44988093       2.79145443       2.39226556       0.00000000
Si       2.28908711       2.74887237      -0.96527297       0.00000000
Si      -2.56069028       1.12982554      -2.51959874       0.00000000
