10
Lattice="16.2900001489832 0.0 0.0 0.0 16.2900001489832 0.0 0.0 0.0 29.17113846505263" Properties=species:S:1:pos:R:3:initial_magmoms:R:1 pbc="T T T"
Si      -1.32361138      -1.39041667       1.36453834       0.00000000
Si       1.38940669      -1.35858601      -1.33936365       0.00000000
Si      -1.42200298       1.36506455      -1.30920069       0.00000000
Si       1.31017213       1.33622962       1.46042388       0.00000000
Si      -2.65952171       0.01394424       2.66746724       0.00000000
Si      -0.03914487       2.69426828      -2.64352649       0.00000000
Si       2.73595440      -2.62374887       0.16070380       0.00000000
Si       2.70692561       2.69996978       0.12712782       0.00000000
Si       0.06677271      -2.76206727      -2.70779343       0.00000000
Si       2.73616617      -0.01721853      -2.74411733       0.00000000
