10
Lattice="16.2900001489832 0.0 0.0 0.0 16.2900001489832 0.0 0.0 0.0 29.17113846505263" Properties=species:S:1:pos:R:3:initial_magmoms:R:1 pbc="T T T"
Si       1.79722685       1.38517455      -0.79249232       0.00000000
Si       0.96563863      -1.61082037      -1.50590168       0.00000000
Si      -1.54020322       0.44399699       1.86097278       0.00000000
Si       1.08326872      -1.01344978       2.03419100       0.00000000
Si      -1.86121397       1.22813406      -1.35838323       0.00000000
Si       1.89990272       0.10301796      -2.79226137       0.00000000
H        0.27194526      -3.36494388       0.74503088       0.00000000
Si      -2.69636969       2.12937995       0.70614575       0.00000000
Si       0.98463277       3.49811463      -1.46424530       0.00000000
Si      -0.66339397      -2.53749332      -2.91641374       0.00000000
