10
Lattice="16.2900001489832 0.0 0.0 0.0 16.2900001489832 0.0 0.0 0.0 29.17113846505263" Properties=species:S:1:pos:R:3:initial_magmoms:R:1 pbc="T T T"
Si      -1.38155491       1.32395347       1.43854552       0.00000000
Si       1.68907754       1.68912641      -0.18150282       0.00000000
Si       1.39300678      -1.46065915       1.39589732       0.00000000
Si      -1.42227991      -0.62424910      -2.11487837       0.00000000
H        1.95594032      -0.37468629      -2.25667927       0.00000000
Si       1.55149219       2.30671289      -2.41572032       0.00000000
Si       0.04439025       2.58587462       2.87614590       0.00000000
Si      -2.68074758      -0.06537177       2.85241226       0.00000000
Si       0.03080439      -2.86207809       2.73573062       0.00000000
Si       2.87127543      -0.16858521       2.81385093       0.00000000
