10
Lattice="16.2900001489832 0.0 0.0 0.0 16.2900001489832 0.0 0.0 0.0 29.17113846505263" Properties=species:S:1:pos:R:3:initial_magmoms:R:1 pbc="T T T"
Si      -0.93426409      -1.71383834       1.28635969       0.00000000
Si      -1.29990943       1.29637450      -1.49694614       0.00000000
Si       1.48361176      -1.27529524      -1.34642307       0.00000000
Si      -0.10267587       1.28215659       1.99976906       0.00000000
Si      -1.89990272      -0.10301796       2.79226137       0.00000000
Si      -2.56329668      -2.64051128      -0.12415237       0.00000000
Si      -2.62606205       2.60097545      -0.04687802       0.00000000
Si      -0.91526995       3.39509667       1.32801608       0.00000000
Si       0.98663644      -3.02992374       2.00767443       0.00000000
Si       2.72947097      -2.59525766       0.19655513       0.00000000
