10
Lattice="16.2900001489832 0.0 0.0 0.0 16.2900001489832 0.0 0.0 0.0 29.17113846505263" Properties=species:S:1:pos:R:3:initial_magmoms:R:1 pbc="T T T"
Si       0.94920202      -0.98561994      -1.87068677       0.00000000
Si      -1.02407086       1.99386344      -0.61247722       0.00000000
Si      -1.06429087      -1.87199795       0.91918257       0.00000000
Si       1.36603054       0.70845211       1.78501113       0.00000000
Si       1.79497883      -2.88950394      -0.80570684       0.00000000
Si      -0.09112626       2.30524679       2.82364952       0.00000000
Si      -1.82412164       2.90501202       1.32008153       0.00000000
Si       0.65073664       3.45760140      -1.18259795       0.00000000
Si      -0.77641399      -1.17940904      -3.45625483       0.00000000
Si       1.99335845      -1.20372513       2.96221243       0.00000000
