10
Lattice="16.2900001489832 0.0 0.0 0.0 16.2900001489832 0.0 0.0 0.0 29.17113846505263" Properties=species:S:1:pos:R:3:initial_magmoms:R:1 pbc="T T T"
Si      -1.35242839      -1.28738242       1.44674261       0.00000000
Si      -1.35252613       1.28757790      -1.46812506       0.00000000
Si       1.33477003      -1.36176256      -1.41655048       0.00000000
Si       1.33229395       1.36298431       1.42395995       0.00000000
Si      -2.66820428      -2.64442088      -0.08806767       0.00000000
Si      -2.69729822       2.70226667      -0.11330070       0.00000000
Si       2.73543311       0.07483626      -2.68609010       0.00000000
Si       2.68511330       2.73847935       0.01974886       0.00000000
Si       0.07428240      -2.73064385       2.69713429       0.00000000
Si       0.04329882       2.62192439      -2.80933816       0.00000000
