10
Lattice="16.2900001489832 0.0 0.0 0.0 16.2900001489832 0.0 0.0 0.0 29.17113846505263" Properties=species:S:1:pos:R:3:initial_magmoms:R:1 pbc="T T T"
Si      -1.75870100      -1.38680029       0.78368263       0.00000000
Si      -0.67364038       2.28594314      -0.04002280       0.00000000
Si       1.53947017       0.15242553       1.82643415       0.00000000
Si       0.98256394      -1.04949955      -1.96908102       0.00000000
Si       1.56256939       3.11559285      -0.82834365       0.00000000
Si      -2.64396476      -0.18935496       2.53926009       0.00000000
Si       2.47019933      -2.00533160       2.13596910       0.00000000
Si      -0.94610692      -3.49974037       1.45543561       0.00000000
Si      -0.73715509       2.86809888       2.57271939       0.00000000
Si       0.48104370       1.13727007       3.72909249       0.00000000
