10
Lattice="16.2900001489832 0.0 0.0 0.0 16.2900001489832 0.0 0.0 0.0 29.17113846505263" Properties=species:S:1:pos:R:3:initial_magmoms:R:1 pbc="T T T"
Si      -1.37401264       0.39715020       0.47662723       0.00000000
Si       2.17293941       1.22323240      -0.38777194       0.00000000
H       -0.96956452      -2.28424898       0.63566828       0.00000000
Si       2.32896503      -1.00470205       0.41703060       0.00000000
Si       1.12648609      -0.43036551       2.45060900       0.00000000
Si       0.47995227       1.96612157      -1.97272741       0.00000000
Si       1.32981787       1.86385295       1.74700114       0.00000000
Si      -2.47728548      -0.25026327      -1.51771599       0.00000000
Si      -1.23642730      -0.22043628       2.71084473       0.00000000
Si      -0.93975382       2.59315625       1.21909105       0.00000000
