10
Lattice="16.2900001489832 0.0 0.0 0.0 16.2900001489832 0.0 0.0 0.0 29.17113846505263" Properties=species:S:1:pos:R:3:initial_magmoms:R:1 pbc="T T T"
Si       0.67364038      -2.28594314       0.04002280       0.00000000
Si       2.23620977       0.82964971      -0.78832085       0.00000000
Si      -1.78862573       0.38789748      -1.73775389       0.00000000
Si      -0.06351471       0.58215574       2.61274219       0.00000000
H       -2.67004505       1.23753502       1.59198571       0.00000000
H        0.75662164       3.24998535      -0.82598079       0.00000000
Si       1.32411637       2.53319276      -2.06129099       0.00000000
Si      -0.21380625       1.24672258      -3.30646103       0.00000000
Si       2.21311055      -2.13351761       1.86645695       0.00000000
Si       3.15566625       1.60871896       1.17830980       0.00000000
