10
Lattice="16.2900001489832 0.0 0.0 0.0 16.2900001489832 0.0 0.0 0.0 29.17113846505263" Properties=species:S:1:pos:R:3:initial_magmoms:R:1 pbc="T T T"
Si      -1.67679488      -0.54239184       1.61748129       0.00000000
Si       1.28044288       1.67399300       1.16246987       0.00000000
Si       1.32491458      -1.98935111      -0.29716639       0.00000000
Si      -0.92207917       1.23004162      -1.93349223       0.00000000
H        0.80049061      -0.29212857       3.13519728       0.00000000
Si      -3.35103222       0.91781119       0.92825480       0.00000000
Si      -0.57352204       0.10502163       3.61182451       0.00000000
Si       2.60226236      -1.62629587      -2.23649284       0.00000000
Si       2.07690986       3.17088111      -0.44958559       0.00000000
Si       0.83373850       1.31318578      -3.51051315       0.00000000
