10
Lattice="16.2900001489832 0.0 0.0 0.0 16.2900001489832 0.0 0.0 0.0 29.17113846505263" Properties=species:S:1:pos:R:3:initial_magmoms:R:1 pbc="T T T"
Si       1.33229395       1.37777563      -1.35808861       0.00000000
Si      -1.32152626       1.44515107       1.30625441       0.00000000
Si       1.32141223      -1.30792411       1.45797350       0.00000000
Si      -1.32040225      -1.42447906      -1.37111352       0.00000000
Si      -2.71376741       0.10290393       2.62470235       0.00000000
Si       2.72531702      -2.62309727       0.09139318       0.00000000
Si      -2.70115895       2.69734709      -0.15586139       0.00000000
Si       2.72225450       0.04250061      -2.69842657       0.00000000
Si       2.74809045       0.08552250       2.71014462       0.00000000
Si       0.10021608      -2.70847316      -2.75888959       0.00000000
