10
Lattice="16.2900001489832 0.0 0.0 0.0 16.2900001489832 0.0 0.0 0.0 29.17113846505263" Properties=species:S:1:pos:R:3:initial_magmoms:R:1 pbc="T T T"
Si      -2.00490806      -0.88102837       0.87490078       0.00000000
Si      -1.39180132       1.93212434      -0.41446354       0.00000000
Si       0.30633345      -1.05277384      -2.18628931       0.00000000
Si       1.38367261      -0.54175653       2.07153006       0.00000000
Si      -3.04205164       1.23717664       1.21182743       0.00000000
H        0.49076883       1.83329291      -3.18723859       0.00000000
Si      -2.33967245       1.47131281      -2.58844263       0.00000000
Si      -1.42011334      -2.59866227       2.37394725       0.00000000
Si       2.56868867      -0.86905522      -2.73394827       0.00000000
Si       0.93659356      -2.86153401       2.55157031       0.00000000
