10
Lattice="16.2900001489832 0.0 0.0 0.0 16.2900001489832 0.0 0.0 0.0 29.17113846505263" Properties=species:S:1:pos:R:3:initial_magmoms:R:1 pbc="T T T"
Si      -0.02843582      -1.70035022       1.60683382       0.00000000
Si       0.67033351      -0.43974855      -2.20732171       0.00000000
Si       1.72740791       1.25937991       0.98268814       0.00000000
Si      -2.28139823       0.74648926      -0.06575175       0.00000000
Si       0.47257290       1.89573248       2.82499139       0.00000000
Si       2.31252842      -2.15886159       1.36287559       0.00000000
Si      -0.50720707      -0.20579157       3.45695494       0.00000000
Si       0.14941188      -2.72908490      -2.23833063       0.00000000
Si      -0.80776898       0.96159871      -3.33507792       0.00000000
Si      -2.08811738       3.02555802       0.30539265       0.00000000
