10
Lattice="16.2900001489832 0.0 0.0 0.0 16.2900001489832 0.0 0.0 0.0 29.17113846505263" Properties=species:S:1:pos:R:3:initial_magmoms:R:1 pbc="T T T"
Si      -1.33524244       1.34654770      -1.36465211       0.00000000
Si       1.32263398       1.40348125       1.36842977       0.00000000
Si      -1.44381529      -1.34816041       1.32511063       0.00000000
Si       1.33615468      -1.39468465      -1.42536892       0.00000000
Si       2.58963761      -2.66773187       0.12288342       0.00000000
Si      -0.06418260      -2.60035643       2.78722644       0.00000000
Si       0.02443500       2.72106533      -2.67550681       0.00000000
Si       2.66939345       2.74484874      -0.03632390       0.00000000
Si      -2.58387095      -0.06457356      -2.83597724       0.00000000
Si      -0.06677271       2.76206727       2.70779343       0.00000000
