10
Lattice="16.2900001489832 0.0 0.0 0.0 16.2900001489832 0.0 0.0 0.0 29.17113846505263" Properties=species:S:1:pos:R:3:initial_magmoms:R:1 pbc="T T T"
Si       1.35967744       1.37451763      -1.31085470       0.00000000
Si       1.33524244      -1.34654770       1.36465211       0.00000000
Si      -1.24862851      -1.41112126      -1.47132513       0.00000000
Si      -1.48511044       1.41928255       1.28288249       0.00000000
Si      -1.94504231       0.46359711      -2.81153475       0.00000000
Si      -0.37118394       2.35157881      -2.56568039       0.00000000
Si      -0.10857285      -2.69470811       2.68976274       0.00000000
Si       2.65787642       0.05693355       2.73308189       0.00000000
Si       2.67139712      -2.74123236      -0.06071681       0.00000000
Si       2.64942191       2.83867425      -0.00142647       0.00000000
