10
Lattice="16.2900001489832 0.0 0.0 0.0 16.2900001489832 0.0 0.0 0.0 29.17113846505263" Properties=species:S:1:pos:R:3:initial_magmoms:R:1 pbc="T T T"
Si      -1.33591033       1.40436091       1.30292890       0.00000000
Si       1.32361138       1.39041667      -1.36453834       0.00000000
Si       1.34244262      -1.23795856       1.51237767       0.00000000
Si      -1.42511437      -1.37200897      -1.32416549       0.00000000
Si       2.70373277      -2.61801479       0.15306096       0.00000000
Si      -0.11934054      -2.60552036       2.72703471       0.00000000
Si       2.63378351       2.72664629       0.09588553       0.00000000
Si      -2.61407261       0.11482821       2.75139261       0.00000000
Si       2.71301807       0.03183066      -2.70390200       0.00000000
Si      -0.09839160       2.75548122      -2.67373904       0.00000000
