10
Lattice="16.2900001489832 0.0 0.0 0.0 16.2900001489832 0.0 0.0 0.0 29.17113846505263" Properties=species:S:1:pos:R:3:initial_magmoms:R:1 pbc="T T T"
Si      -1.49942935       0.42033413       1.71613808       0.00000000
Si       1.92956681       1.34971611       0.08512138       0.00000000
Si       0.56229823      -2.27928053       0.20384792       0.00000000
Si      -1.12808251       0.68144329      -1.95790847       0.00000000
Si       3.03179709       0.26543187      -1.75452729       0.00000000
Si      -0.08693973       0.04259835       3.56675510       0.00000000
Si       1.30223890       3.26189334      -1.09207991       0.00000000
Si      -3.38939517       0.78838388      -1.48912828       0.00000000
Si      -0.06379164       2.55344123      -2.87709104       0.00000000
Si      -3.09962865      -1.27342189       1.95715002       0.00000000
