10
Lattice="16.2900001489832 0.0 0.0 0.0 16.2900001489832 0.0 0.0 0.0 29.17113846505263" Properties=species:S:1:pos:R:3:initial_magmoms:R:1 pbc="T T T"
Si       1.38613240       0.52554798       0.31154776       0.00000000
Si      -2.24287238      -0.08744472       0.74488502       0.00000000
Si      -1.90057061       0.83149048      -1.56517743       0.00000000
Si       2.40150440      -0.98906365       1.76625409       0.00000000
Si       2.43944381       1.11736369      -1.69472646       0.00000000
Si      -2.07555779      -2.47335959       0.43555427       0.00000000
Si       1.46520406       2.61370772       1.33860520       0.00000000
Si      -0.00931788      -3.26537940      -0.47569375       0.00000000
Si      -1.34636851       0.23260491       3.02058387       0.00000000
Si      -0.57324511      -0.19865655      -3.30433154       0.00000000
