10
Lattice="16.2900001489832 0.0 0.0 0.0 16.2900001489832 0.0 0.0 0.0 29.17113846505263" Properties=species:S:1:pos:R:3:initial_magmoms:R:1 pbc="T T T"
Si       1.34197021       1.32706486      -1.39724211       0.00000000
Si      -1.33094188       1.39662316       1.37819044       0.00000000
Si       1.41485917      -1.24282781       1.44890128       0.00000000
Si      -1.30170133      -1.32056515      -1.49305471       0.00000000
Si      -2.64846080      -2.66193263      -0.08830104       0.00000000
Si      -0.03142341       2.81955468      -2.55745996       0.00000000
Si       2.81660130      -2.59162499       0.06744367       0.00000000
Si      -2.72769537       0.03288299       2.71148649       0.00000000
Si       0.05214429      -2.57056202       2.86332227       0.00000000
Si       2.62454220      -0.07700609      -2.82533561       0.00000000
