10
Lattice="16.2900001489832 0.0 0.0 0.0 16.2900001489832 0.0 0.0 0.0 29.17113846505263" Properties=species:S:1:pos:R:3:initial_magmoms:R:1 pbc="T T T"
Si       1.33351570      -1.38031687      -1.35940422       0.00000000
Si       1.39274614       1.21740058       1.47153808       0.00000000
Si      -1.27152085      -1.19485522       1.59504868       0.00000000
Si      -1.41364784       1.37163430      -1.30963826       0.00000000
Si      -0.31622148       2.29796516       2.63429966       0.00000000
Si      -2.13319181       0.67536712       2.78476439       0.00000000
Si       0.47864907      -2.16930674       2.95241092       0.00000000
Si       2.24647247      -0.50047767       2.96816334       0.00000000
Si      -2.80323747      -2.52394004       0.27712582       0.00000000
Si       2.65241927       0.03575655      -2.72720974       0.00000000
