10
Lattice="16.2900001489832 0.0 0.0 0.0 16.2900001489832 0.0 0.0 0.0 29.17113846505263" Properties=species:S:1:pos:R:3:initial_magmoms:R:1 pbc="T T T"
Si       0.19328085       2.27906876       0.37114439       0.00000000
Si      -0.62294590      -0.05137866      -2.27844094       0.00000000
Si       2.28139823      -0.74648926       0.06575175       0.00000000
Si      -1.65288116      -0.46209843       1.69361796       0.00000000
Si       1.47362925       0.21510945      -3.26932617       0.00000000
Si      -1.33520986      -2.36144729      -2.42630944       0.00000000
Si       2.25296241      -2.44683947       1.67258557       0.00000000
Si       0.89115423       2.55958256       2.58155824       0.00000000
Si      -1.73736110       3.33555672      -0.60964762       0.00000000
Si      -1.54447120       2.18062829      -2.74567507       0.00000000
