10
Lattice="16.2900001489832 0.0 0.0 0.0 16.2900001489832 0.0 0.0 0.0 29.17113846505263" Properties=species:S:1:pos:R:3:initial_magmoms:R:1 pbc="T T T"
Si      -1.94737178      -1.27433413      -0.29809986       0.00000000
Si       0.62922569       0.91022005      -2.07185094       0.00000000
Si      -0.22335219       2.28110501       0.70920872       0.00000000
Si       1.53896844      -1.59713677       0.94406555       0.00000000
H       -1.55072656       1.02433150       2.66236229       0.00000000
Si       2.00979506       2.89126326       0.49305058       0.00000000
Si      -1.37401264      -3.20324934       0.86550768       0.00000000
Si       2.75268423       1.80519266      -1.43921646       0.00000000
Si       1.26446402      -1.52199100       3.25722015       0.00000000
Si      -1.08338275      -2.09909684       3.01661660       0.00000000
