10
Lattice="16.2900001489832 0.0 0.0 0.0 16.2900001489832 0.0 0.0 0.0 29.17113846505263" Properties=species:S:1:pos:R:3:initial_magmoms:R:1 pbc="T T T"
Si       1.70950520      -0.76916494      -1.34079304       0.00000000
Si      -1.29371923       1.55178541      -1.15231831       0.00000000
Si      -1.50967576      -1.79572817       0.09363935       0.00000000
Si       1.21702591       0.36864270       1.98903408       0.00000000
H       -1.80198353       0.51579027       2.14314520       0.00000000
H       -2.66813912       1.32097240      -0.54599620       0.00000000
H        2.10615041       1.52950069       1.61966912       0.00000000
Si      -2.74092285      -0.64583335       1.91491021       0.00000000
H       -0.68953942       0.87210145      -3.34508362       0.00000000
Si       2.28286433      -2.69808014      -0.17718550       0.00000000
