10
Lattice="16.2900001489832 0.0 0.0 0.0 16.2900001489832 0.0 0.0 0.0 29.17113846505263" Properties=species:S:1:pos:R:3:initial_magmoms:R:1 pbc="T T T"
Si       1.25568309       1.25498161      -1.49774251       0.00000000
Si       1.36399185      -1.18413640       1.51839568       0.00000000
Si      -0.79659730      -1.85042999      -1.23912695       0.00000000
Si      -1.39735621       1.43830927       1.26646789       0.00000000
H       -1.00626589      -1.16466985      -2.60006149       0.00000000
H        0.09303219       1.73629410      -2.69288406       0.00000000
Si       2.66976487      -2.51744033       0.08476258       0.00000000
Si       2.52888732       2.68186834      -0.06581301       0.00000000
Si      -0.08255772      -2.57945636       2.77399149       0.00000000
Si       2.48680047      -0.20847942      -2.86301014       0.00000000
