10
Lattice="16.2900001489832 0.0 0.0 0.0 16.2900001489832 0.0 0.0 0.0 29.17113846505263" Properties=species:S:1:pos:R:3:initial_magmoms:R:1 pbc="T T T"
Si       1.47392084      -1.34322780       1.29166884       0.00000000
Si      -1.28708008      -1.39852600      -1.42894822       0.00000000
Si       1.37016983       1.23300803      -1.54805398       0.00000000
Si      -1.32679168       1.40996630       1.43317803       0.00000000
Si      -2.62633735       2.62640577      -0.15040639       0.00000000
Si      -2.64979496      -2.72626022      -0.01452723       0.00000000
Si       2.80996149       2.55358947      -0.20335201       0.00000000
Si       0.20492494       2.73905112       2.75110090       0.00000000
Si       2.81546751      -2.70397550      -0.14314278       0.00000000
Si       0.11466205      -2.74732319      -2.81040582       0.00000000
