10
Lattice="16.2900001489832 0.0 0.0 0.0 16.2900001489832 0.0 0.0 0.0 29.17113846505263" Properties=species:S:1:pos:R:3:initial_magmoms:R:1 pbc="T T T"
Si       2.18235014      -0.57816469       0.71055059       0.00000000
Si      -0.16505843      -0.68414743      -2.26516807       0.00000000
Si      -0.01629000       2.20770227       0.89339529       0.00000000
Si      -2.03408834      -0.86635108       0.99657360       0.00000000
Si      -1.33621496      -0.58583728       3.20698745       0.00000000
Si      -1.09428076       1.70847893       2.91256315       0.00000000
Si       1.78143695      -2.63252918       1.67386910       0.00000000
Si      -2.05036205       0.37411614      -3.03155222       0.00000000
Si      -1.73951626       3.32351841      -0.33056734       0.00000000
H        2.15695403       2.38518182      -2.00554494       0.00000000
