10
Lattice="16.2900001489832 0.0 0.0 0.0 16.2900001489832 0.0 0.0 0.0 29.17113846505263" Properties=species:S:1:pos:R:3:initial_magmoms:R:1 pbc="T T T"
Si       1.20135493      -1.39698154      -1.44752907       0.00000000
Si       1.64538776       1.15085593       1.22665046       0.00000000
Si      -1.46271984      -1.51514920       1.07183922       0.00000000
Si      -1.00738827       1.83619253      -1.16395643       0.00000000
Si       0.23543937       2.52527582       2.57294809       0.00000000
Si       1.00644508       3.12385188      -1.65505255       0.00000000
Si      -2.56078802      -0.17280432       2.66012312       0.00000000
Si      -0.44988093      -2.79145443      -2.39226556       0.00000000
Si      -2.07076364       0.91320112      -2.99587475       0.00000000
Si       0.01909188      -2.88383502       2.44161962       0.00000000
