10
Lattice="16.2900001489832 0.0 0.0 0.0 16.2900001489832 0.0 0.0 0.0 29.17113846505263" Properties=species:S:1:pos:R:3:initial_magmoms:R:1 pbc="T T T"
Si       1.25364583      -1.39869199       1.38273530       0.00000000
Si      -1.64538776      -1.15085593      -1.22665046       0.00000000
Si      -1.40994838       1.37441989       1.34629763       0.00000000
Si       1.30512223       1.20321199      -1.62851089       0.00000000
Si      -0.63894268       1.97299595      -2.88170300       0.00000000
Si      -2.65277603       0.68533660      -2.39060689       0.00000000
Si      -0.44403282      -2.54783747      -2.67417952       0.00000000
Si       2.51120126      -2.75568159      -0.08347321       0.00000000
Si       2.58046634       2.69470811      -0.22427063       0.00000000
Si       2.63795375      -0.00089595       2.68353762       0.00000000
