10
Lattice="16.2900001489832 0.0 0.0 0.0 16.2900001489832 0.0 0.0 0.0 29.17113846505263" Properties=species:S:1:pos:R:3:initial_magmoms:R:1 pbc="T T T"
Si       0.27450442      -0.07514577      -2.31315460       0.00000000
Si       0.11530877       2.26338149       0.70214930       0.00000000
Si       1.71225658      -1.33708321       1.03589630       0.00000000
Si      -2.34784677      -0.57710584      -0.24060355       0.00000000
H       -1.33802966       2.67618638       0.45950377       0.00000000
H       -1.52494112      -0.68181796       2.59238073       0.00000000
Si      -0.48273461      -2.23809941      -2.95413202       0.00000000
Si      -1.26446402       1.52199100      -3.25722015       0.00000000
Si       1.19594502      -3.60136065       0.57995140       0.00000000
H       -2.81519058       2.54632250      -0.59485786       0.00000000
