10
Lattice="16.2900001489832 0.0 0.0 0.0 16.2900001489832 0.0 0.0 0.0 29.17113846505263" Properties=species:S:1:pos:R:3:initial_magmoms:R:1 pbc="T T T"
Si       1.55816947       1.69613762       0.48502852       0.00000000
Si       0.23074785      -2.06774836      -1.12422651       0.00000000
Si      -2.22192507       0.31647886      -0.89275352       0.00000000
Si      -0.21427052      -1.22850385       2.08474458       0.00000000
Si      -2.18804187      -2.10153382      -0.72846167       0.00000000
Si       2.10342835      -2.61461996       0.24357901       0.00000000
Si      -2.19349902      -2.29976683       1.58583060       0.00000000
Si       2.31672961       2.16996486      -1.76707088       0.00000000
Si      -3.14283136       1.70499938       0.84995946       0.00000000
Si      -1.61634431       2.15659077       2.57444048       0.00000000
