10
Lattice="16.2900001489832 0.0 0.0 0.0 16.2900001489832 0.0 0.0 0.0 29.17113846505263" Properties=species:S:1:pos:R:3:initial_magmoms:R:1 pbc="T T T"
Si       1.30087054      -1.26969148       1.53596546       0.00000000
Si      -1.41599197      -1.44324514      -1.30023640       0.00000000
Si       1.47488032       1.22350933      -1.47946388       0.00000000
Si      -1.39266469       1.36695907       1.49869641       0.00000000
H       -0.57177901       3.08535535      -1.69947260       0.00000000
Si       2.62923860      -2.61263909       0.07637879       0.00000000
Si      -2.74817515      -2.50540202       0.37065724       0.00000000
Si       2.54638766       2.77901864       0.07676093       0.00000000
Si      -2.93113955      -0.19644111      -2.57711548       0.00000000
Si       2.66365937       0.09681147       2.91974800       0.00000000
