10
Lattice="10.86 0.0 0.0 0.0 10.86 0.0 0.0 0.0 10.86" Properties=species:S:1:pos:R:3:initial_magmoms:R:1 pbc="T T T"
Si       1.35750000       1.35750000       1.35750000       0.00000000
Si      -1.35750000      -1.35750000       1.35750000       0.00000000
Si      -1.35750000       1.35750000      -1.35750000       0.00000000
Si       1.35750000      -1.35750000      -1.35750000       0.00000000
Si       0.29535942       2.83413420       2.47259394       0.00000000
Si      -0.14966166       2.62141938      -2.71019988       0.00000000
Si      -2.60133924       0.03158088       2.74132464       0.00000000
Si      -2.80259676       0.11742918      -2.57405892       0.00000000
Si       2.92984338       0.22992792       2.47041108       0.00000000
Si       2.71500000       2.71500000       0.00000000       0.00000000
