10
Lattice="16.28999089631971 0.0 0.0 0.0 16.28999089631971 0.0 0.0 0.0 34.54679606040008" Properties=species:S:1:pos:R:3:initial_magmoms:R:1 pbc="T T T"
Si      -0.55996453       1.20771651       1.92253028       0.00000000
Si       1.67732754      -1.68197508       0.02805201       0.00000000
Si      -0.05632919       1.44344291      -1.93524350       0.00000000
Si      -2.03733721      -1.47882249       0.00742757       0.00000000
Si      -2.42437132       2.22678340       0.50265616       0.00000000
Si       0.55167062      -3.30463827      -1.28293054       0.00000000
Si      -2.46592711       1.90408501      -1.84625091       0.00000000
Si      -0.44166655      -2.08608111      -3.14030552       0.00000000
Si       0.58411053      -0.01361844      -3.75489336       0.00000000
Si      -1.71880255      -0.25946712       3.39238469       0.00000000
