10
Lattice="16.28999089631971 0.0 0.0 0.0 16.28999089631971 0.0 0.0 0.0 34.54679606040008" Properties=species:S:1:pos:R:3:initial_magmoms:R:1 pbc="T T T"
Si      -1.45253043       1.20806640      -1.41521029       0.00000000
Si      -1.42179120      -1.36669027       1.32138114       0.00000000
Si       1.27428525      -1.51794292      -1.40875004       0.00000000
Si       1.48089132       1.36933740       1.37351229       0.00000000
Si      -0.08083098       2.55085110      -2.79545921       0.00000000
Si       2.76825744       2.62611090      -0.11752827       0.00000000
Si      -2.86386345       2.55093255       0.11227715       0.00000000
Si       2.63567313      -0.16765668      -2.79217726       0.00000000
Si      -2.79438660      -0.16392627      -2.79058810       0.00000000
Si       2.50137837      -3.09979871       0.00031092       0.00000000
