10
Lattice="16.28999089631971 0.0 0.0 0.0 16.28999089631971 0.0 0.0 0.0 34.54679606040008" Properties=species:S:1:pos:R:3:initial_magmoms:R:1 pbc="T T T"
Si      -1.53560943       1.64480130       0.46517287       0.00000000
Si       1.25512821      -0.12043197       1.94336200       0.00000000
Si      -0.69115212      -2.16616633      -0.49730141       0.00000000
Si       1.29596724       0.96620877      -1.75394182       0.00000000
Si      -0.32711949      -1.94515469      -2.89944512       0.00000000
Si      -2.11652712       2.29978962      -1.66957849       0.00000000
Si       2.85692391       2.14407351      -0.27084703       0.00000000
Si       0.53185221      -2.09868680       2.91319475       0.00000000
Si      -0.42634188       1.69095087      -3.20715360       0.00000000
Si       3.38874354       0.46141425       1.28517608       0.00000000
