10
Lattice="16.28999089631971 0.0 0.0 0.0 16.28999089631971 0.0 0.0 0.0 34.54679606040008" Properties=species:S:1:pos:R:3:initial_magmoms:R:1 pbc="T T T"
Si       0.69115212       2.16616633       0.49730141       0.00000000
Si      -1.91511756      -0.78769026       1.20710028       0.00000000
Si       2.05208388      -1.22528853       0.20482807       0.00000000
Si       0.36403263       0.22101164      -2.40214371       0.00000000
Si      -1.18695456      -0.11988171       3.40603962       0.00000000
Si       1.22300433       0.06747953       3.41049616       0.00000000
Si       1.47281148      -3.15970974      -1.01619457       0.00000000
Si       1.94628033       2.04573436       2.44066341       0.00000000
Si       2.66331726       1.18393961      -2.46446617       0.00000000
Si      -2.15026371      -3.08630700       0.68471788       0.00000000
