10
Lattice="16.28999089631971 0.0 0.0 0.0 16.28999089631971 0.0 0.0 0.0 34.54679606040008" Properties=species:S:1:pos:R:3:initial_magmoms:R:1 pbc="T T T"
Si      -1.03140135      -1.64748915       1.31790435       0.00000000
Si       1.72336797       1.09742472       1.21736275       0.00000000
Si      -1.81180638       1.63505988      -0.12027409       0.00000000
Si       0.18380007      -1.73265327      -1.77897033       0.00000000
Si       1.85443731       0.92598876      -2.65735766       0.00000000
Si      -0.21538638      -0.02280600      -3.41417474       0.00000000
Si      -2.32834599       0.58290507      -2.47709238       0.00000000
Si      -2.36162646      -0.19940589       2.66214512       0.00000000
Si       0.37559853       2.53920375       2.63659084       0.00000000
Si      -1.71385461      -3.51961740      -0.08831828       0.00000000
