10
Lattice="16.28999089631971 0.0 0.0 0.0 16.28999089631971 0.0 0.0 0.0 34.54679606040008" Properties=species:S:1:pos:R:3:initial_magmoms:R:1 pbc="T T T"
Si       1.28736612       1.25677350      -1.49104055       0.00000000
Si      -1.19830869       1.48561542       1.47528720       0.00000000
Si      -1.48089132      -1.36933740      -1.37351229       0.00000000
Si       1.47421242      -0.94102443       1.72098415       0.00000000
Si      -1.83014892      -0.32472486       2.82720773       0.00000000
Si       2.53377918      -0.19992717      -2.80502867       0.00000000
Si      -0.21717828       2.54221740      -2.79867206       0.00000000
Si       2.32451784       1.07435808       2.82181843       0.00000000
Si       2.56108122       2.82261717      -0.17491053       0.00000000
Si      -2.96069121       2.62076778       0.22203238       0.00000000
