10
Lattice="16.28999089631971 0.0 0.0 0.0 16.28999089631971 0.0 0.0 0.0 34.54679606040008" Properties=species:S:1:pos:R:3:initial_magmoms:R:1 pbc="T T T"
Si      -1.22448672       1.40155902      -1.41179016       0.00000000
Si       1.67342283       1.22087034       1.17680272       0.00000000
Si      -1.25159328      -1.24198218       1.61824193       0.00000000
Si       1.49191965      -1.32053256      -1.40246252       0.00000000
Si       0.21939372       2.46223350       2.61816495       0.00000000
Si      -2.63565684      -2.68115481       0.13497441       0.00000000
Si       0.51078924      -2.37713454       2.87149675       0.00000000
Si      -2.59706583       2.73896802       0.01084770       0.00000000
Si      -2.56958460       0.03298725      -2.77252012       0.00000000
Si       0.14737563      -2.68123626      -2.77276195       0.00000000
