10
Lattice="16.28999089631971 0.0 0.0 0.0 16.28999089631971 0.0 0.0 0.0 34.54679606040008" Properties=species:S:1:pos:R:3:initial_magmoms:R:1 pbc="T T T"
Si      -2.11295961       0.60571107       0.93708237       0.00000000
Si       0.39918645      -1.70984727       1.63520441       0.00000000
Si       2.06982369       0.94879476       0.75681708       0.00000000
Si      -0.41137137      -0.90486063      -2.24509389       0.00000000
Si       0.21538638       0.02280600       3.41417474       0.00000000
Si       3.56830821      -0.84305637       0.34498450       0.00000000
Si       2.47420665       2.69115687      -0.72327213       0.00000000
Si      -1.21358871      -3.48288345       0.99042265       0.00000000
Si      -0.45323667       0.96244578      -3.72960509       0.00000000
Si       1.65485223      -1.79685216      -3.09024718       0.00000000
