10
Lattice="16.28999089631971 0.0 0.0 0.0 16.28999089631971 0.0 0.0 0.0 34.54679606040008" Properties=species:S:1:pos:R:3:initial_magmoms:R:1 pbc="T T T"
Si      -1.35283563       1.35726651      -1.36100634       0.00000000
Si       1.36187658      -1.35897696      -1.35962447       0.00000000
Si      -1.36537893      -1.35508365       1.36774297       0.00000000
Si       1.38116394       1.36422234       1.35817350       0.00000000
Si       0.13916547      -2.64052755       2.67537448       0.00000000
Si      -2.70492192       2.71241532      -0.00134733       0.00000000
Si      -2.70992295      -2.71578735      -0.00255646       0.00000000
Si      -2.71037907      -0.00128691      -2.71724522       0.00000000
Si       2.71845891       2.71309950      -0.00400743       0.00000000
Si       0.00462636       2.71438641      -2.71721067       0.00000000
