10
Lattice="16.28999089631971 0.0 0.0 0.0 16.28999089631971 0.0 0.0 0.0 34.54679606040008" Properties=species:S:1:pos:R:3:initial_magmoms:R:1 pbc="T T T"
Si      -1.43729928       1.23989706       1.38069802       0.00000000
Si      -1.36054080      -1.34491869      -1.36190456       0.00000000
Si       1.34871426       1.37347506      -1.36615381       0.00000000
Si       1.49608989      -1.26995211       1.41510665       0.00000000
Si       0.23690547       2.06855307       2.97759002       0.00000000
Si       2.68954416       2.72580570      -0.01330052       0.00000000
Si       2.72554506      -2.69311167      -0.00238373       0.00000000
Si      -0.00845451      -2.70006750      -2.72156357       0.00000000
Si       2.70601335       0.01399311      -2.71980168       0.00000000
Si      -2.73740418      -2.69032608      -0.00214190       0.00000000
