10
Lattice="16.28999089631971 0.0 0.0 0.0 16.28999089631971 0.0 0.0 0.0 34.54679606040008" Properties=species:S:1:pos:R:3:initial_magmoms:R:1 pbc="T T T"
Si       1.51322697      -0.99279405       1.46589047       0.00000000
Si      -1.35690813      -1.77772770      -0.72472309       0.00000000
Si       1.52223534       1.07626401      -1.48482212       0.00000000
Si      -2.10083985       1.14966675       0.21609033       0.00000000
Si      -2.68661196      -0.08589717      -1.81868255       0.00000000
Si       2.89030212      -2.07462924      -0.23723298       0.00000000
Si      -2.65417857      -2.17851057       1.18923957       0.00000000
Si       2.10150774       3.01068522      -0.26379948       0.00000000
Si      -3.34752332       0.00710244       1.84673456       0.00000000
Si       2.67064776       0.61691859       2.68218020       0.00000000
