10
Lattice="16.28999089631971 0.0 0.0 0.0 16.28999089631971 0.0 0.0 0.0 34.54679606040008" Properties=species:S:1:pos:R:3:initial_magmoms:R:1 pbc="T T T"
Si       1.83379788      -1.39883859       0.36453800       0.00000000
Si      -2.09701170      -1.04638815      -0.33728056       0.00000000
Si       0.90670140       1.23735582      -1.81629882       0.00000000
Si       0.18186156       1.19249316       2.12034534       0.00000000
Si       2.06412219       2.84706846      -0.60000909       0.00000000
Si       0.62695323       3.33534492       1.26486255       0.00000000
Si       1.10030805      -2.84809473       2.16677626       0.00000000
Si       3.55050324       0.04263093       1.28320691       0.00000000
Si      -3.39423327      -0.60302322       1.57029095       0.00000000
Si      -3.26070414       0.05163930      -2.09294972       0.00000000
