10
Lattice="16.28999089631971 0.0 0.0 0.0 16.28999089631971 0.0 0.0 0.0 34.54679606040008" Properties=species:S:1:pos:R:3:initial_magmoms:R:1 pbc="T T T"
Si      -0.21996387      -0.05479956      -2.40929490       0.00000000
Si       1.85823288       1.05798663       1.15841487       0.00000000
Si      -0.88404201      -1.90177605       1.23448696       0.00000000
Si      -1.85321556       1.66265514       0.15326906       0.00000000
Si      -2.16236718      -0.39775293       2.78351088       0.00000000
Si       0.55768815       2.34755190       2.76671077       0.00000000
Si      -0.78367932       2.23852293      -2.99969998       0.00000000
Si      -1.00392012       3.48827544       1.42098794       0.00000000
Si      -3.57649719       0.94732866       1.52544369       0.00000000
Si      -2.38865157      -1.11768948      -3.10213129       0.00000000
