10
Lattice="16.28999089631971 0.0 0.0 0.0 16.28999089631971 0.0 0.0 0.0 34.54679606040008" Properties=species:S:1:pos:R:3:initial_magmoms:R:1 pbc="T T T"
Si      -1.56160827       1.14072354      -1.34572283       0.00000000
Si       1.35052245       1.35891180       1.37992417       0.00000000
Si      -1.36256076      -1.36031274       1.37729862       0.00000000
Si       1.30054473      -1.28956527      -1.60829590       0.00000000
Si      -2.41090371      -0.68489676      -2.61344171       0.00000000
Si      -0.55768815      -2.34755190      -2.76671077       0.00000000
Si       2.70076797       2.70032852      -0.01215357       0.00000000
Si       2.69936703      -2.71476108      -0.02399967       0.00000000
Si       2.70420516       0.00035838       2.73892680       0.00000000
Si      -2.74344777       2.70626948       0.00434599       0.00000000
