10
Lattice="16.28999089631971 0.0 0.0 0.0 16.28999089631971 0.0 0.0 0.0 34.54679606040008" Properties=species:S:1:pos:R:3:initial_magmoms:R:1 pbc="T T T"
Si       1.35821133       1.35625653       1.35713709       0.00000000
Si      -1.35729909       1.35746199      -1.35724074       0.00000000
Si       1.35762489      -1.35759231      -1.35737892       0.00000000
Si      -1.35830907      -1.35843939       1.35748256       0.00000000
Si       2.71458189       0.00172674       2.71182137       0.00000000
Si       2.71337643      -0.00131949      -2.71410146       0.00000000
Si       0.00048870       2.71397400      -2.71496513       0.00000000
Si       2.71482624       2.71467928       0.00027637       0.00000000
Si       2.71487511      -2.71469592       0.00020728       0.00000000
Si      -0.00027693      -2.71541268      -2.71437783       0.00000000
