10
Lattice="16.28999089631971 0.0 0.0 0.0 16.28999089631971 0.0 0.0 0.0 34.54679606040008" Properties=species:S:1:pos:R:3:initial_magmoms:R:1 pbc="T T T"
Si      -0.25902729       2.21719185       0.84377142       0.00000000
Si       1.51262424      -0.08878050      -2.11941258       0.00000000
Si      -2.45358351      -0.87298110      -0.30235373       0.00000000
Si       0.84975156      -1.16352954       2.22972056       0.00000000
Si      -1.48682088      -2.19791196      -2.11879073       0.00000000
Si       1.42902396       0.77089167       3.45074320       0.00000000
Si      -0.16158051      -0.91743651      -3.71630457       0.00000000
Si       2.04025734       3.18011981       0.78144896       0.00000000
Si      -0.62305992       1.99618020       3.24591513       0.00000000
Si      -0.01780497      -3.78698517      -1.06918939       0.00000000
