10
Lattice="16.28999089631971 0.0 0.0 0.0 16.28999089631971 0.0 0.0 0.0 34.54679606040008" Properties=species:S:1:pos:R:3:initial_magmoms:R:1 pbc="T T T"
Si      -2.08142217       0.01806561       1.06984578       0.00000000
Si       1.34262180       1.71647730       0.99525920       0.00000000
Si       0.56371545      -2.29332249       0.59040507       0.00000000
Si       0.37880766       0.27230364      -2.39402521       0.00000000
Si      -1.06953624      -0.57586779       3.15296904       0.00000000
Si       0.78301143       3.32499492      -0.65317664       0.00000000
Si      -3.20707909      -1.60459758      -0.24113677       0.00000000
Si       2.75773410       0.52435881      -2.34299956       0.00000000
Si      -1.60497225      -3.35621241      -0.10243131       0.00000000
Si       0.78367932      -2.23852293       2.99969998       0.00000000
