10
Lattice="16.28999089631971 0.0 0.0 0.0 16.28999089631971 0.0 0.0 0.0 34.54679606040008" Properties=species:S:1:pos:R:3:initial_magmoms:R:1 pbc="T T T"
Si       0.58994235       0.21721086       2.33045907       0.00000000
Si      -2.29534245       0.93094092      -0.19954241       0.00000000
Si      -1.20508533      -2.17406503       0.16634292       0.00000000
Si       1.67106078       1.05274125      -1.74015764       0.00000000
Si      -0.74642409      -1.91734114      -2.14331897       0.00000000
Si       0.04062726       0.17521524      -3.24183861       0.00000000
Si      -1.44503703       2.94632343       0.90129187       0.00000000
Si      -3.20119677      -1.12593711       1.15206720       0.00000000
Si      -0.15718221       2.42556471       2.91215835       0.00000000
Si       2.95471278      -0.18798660       2.45745316       0.00000000
