10
Lattice="16.28999089631971 0.0 0.0 0.0 16.28999089631971 0.0 0.0 0.0 34.54679606040008" Properties=species:S:1:pos:R:3:initial_magmoms:R:1 pbc="T T T"
Si       1.35602847      -1.35905841       1.36000448       0.00000000
Si      -1.35956340       1.35716877       1.36135181       0.00000000
Si      -1.36980981      -1.36570473      -1.36022213       0.00000000
Si       1.36741518       1.36057338      -1.38297120       0.00000000
Si       2.70752832       2.71358820       0.00414562       0.00000000
Si      -2.71425609      -2.71684620       0.00428381       0.00000000
Si       2.71305063      -0.00027693       2.71855799       0.00000000
Si       2.71464705      -2.71707426       0.00193462       0.00000000
Si      -2.71652040       2.71534752      -0.00006909       0.00000000
Si      -0.00179190       2.71474479       2.71852345       0.00000000
