10
Lattice="16.28999089631971 0.0 0.0 0.0 16.28999089631971 0.0 0.0 0.0 34.54679606040008" Properties=species:S:1:pos:R:3:initial_magmoms:R:1 pbc="T T T"
Si       1.35804843      -1.35511623      -1.35834623       0.00000000
Si      -1.35954711       1.35889551      -1.35827714       0.00000000
Si      -1.33584516      -1.37935575       1.36273368       0.00000000
Si       1.35622395       1.35747828       1.36960850       0.00000000
Si      -2.58225822       0.07734492       2.67672180       0.00000000
Si       2.59224399      -0.18757935       2.71845435       0.00000000
Si       2.71303434      -2.71231758      -0.00576932       0.00000000
Si      -0.00120546      -2.71318095      -2.71593244       0.00000000
Si       2.71331127       0.00154755      -2.71596698       0.00000000
Si       2.71430496       2.71656927       0.00010364       0.00000000
