10
Lattice="16.28999089631971 0.0 0.0 0.0 16.28999089631971 0.0 0.0 0.0 34.54679606040008" Properties=species:S:1:pos:R:3:initial_magmoms:R:1 pbc="T T T"
Si      -1.50166107       0.71021142      -1.70022152       0.00000000
Si      -1.73822445      -1.03804767       1.29650743       0.00000000
Si       2.24024967      -0.95001651      -0.16810480       0.00000000
Si       1.34068329       2.58621669       0.85119898       0.00000000
Si      -2.47401117       2.19243852      -0.07254831       0.00000000
Si       1.37787336      -2.93162985      -1.34494207       0.00000000
Si      -0.03303612       1.92997404      -2.97178615       0.00000000
Si      -0.45036963      -1.55880639       3.30737392       0.00000000
Si       1.34851878       3.17171187      -1.50990311       0.00000000
Si      -3.63959325       0.60589026       1.35292238       0.00000000
