10
Lattice="16.28999089631971 0.0 0.0 0.0 16.28999089631971 0.0 0.0 0.0 34.54679606040008" Properties=species:S:1:pos:R:3:initial_magmoms:R:1 pbc="T T T"
Si      -1.68893091       0.83727342      -1.37997254       0.00000000
Si      -0.72918927      -1.89791532       1.17117159       0.00000000
Si       2.06268867       0.10226862      -1.13413740       0.00000000
Si       0.31832289       1.63802466       1.70353801       0.00000000
Si      -3.04706079       1.81780110       0.32180359       0.00000000
Si       2.48655447       2.49992856      -0.78752920       0.00000000
Si       0.41599773      -1.77455115       3.15136050       0.00000000
Si      -0.32200443       0.46434645       3.62758835       0.00000000
Si      -1.33035543       3.25927062       1.24047250       0.00000000
Si      -0.60258339       2.33624664      -2.87249860       0.00000000
