10
Lattice="16.28999089631971 0.0 0.0 0.0 16.28999089631971 0.0 0.0 0.0 34.54679606040008" Properties=species:S:1:pos:R:3:initial_magmoms:R:1 pbc="T T T"
Si      -1.49848452       1.79185113       0.41183259       0.00000000
Si      -0.41226732      -1.57237596      -1.76841693       0.00000000
Si      -1.01776662      -1.84474476       1.18464485       0.00000000
Si       2.37501684       0.73968003       0.17774337       0.00000000
Si      -3.16912176      -0.86679090       1.29021991       0.00000000
Si       2.06990514       1.06134237       2.77030912       0.00000000
Si       3.30441021      -1.18076436      -0.90716482       0.00000000
Si       1.77508872      -1.74539205      -2.64030946       0.00000000
Si      -3.56830821       0.84305637      -0.34498450       0.00000000
Si      -1.22103324      -3.56207566      -0.67041550       0.00000000
