10
Lattice="16.28999089631971 0.0 0.0 0.0 16.28999089631971 0.0 0.0 0.0 34.54679606040008" Properties=species:S:1:pos:R:3:initial_magmoms:R:1 pbc="T T T"
Si      -1.34886087      -1.57390722      -1.10204341       0.00000000
Si       1.00784601       1.13091696      -1.82379548       0.00000000
Si       1.74027699      -1.41022530       0.98292599       0.00000000
Si      -1.40797728       1.16664093       1.63116243       0.00000000
Si      -2.07663291      -0.65088324       3.01092769       0.00000000
Si      -3.34335960      -0.53799354      -1.79170149       0.00000000
Si       1.56377484      -1.06323201       3.34883009       0.00000000
Si       2.06397558      -1.72286298      -2.80682511       0.00000000
Si       2.87924121       2.40819957      -1.10000515       0.00000000
Si      -2.43520839      -3.07288044       0.39048265       0.00000000
