10
Lattice="16.28999089631971 0.0 0.0 0.0 16.28999089631971 0.0 0.0 0.0 34.54679606040008" Properties=species:S:1:pos:R:3:initial_magmoms:R:1 pbc="T T T"
Si      -1.31445639       0.41278860       1.90404773       0.00000000
Si       1.64867832      -1.62124596       0.46306551       0.00000000
Si       0.66865563       1.81752417      -1.37976526       0.00000000
Si      -1.71670536      -1.44146952      -0.91866891       0.00000000
Si       0.99054603       1.55416374       2.32392972       0.00000000
Si      -1.18812744      -1.91997198       2.58520729       0.00000000
Si      -0.35857548      -2.42199720      -2.62044504       0.00000000
Si      -3.36864168       1.14986223       0.83713843       0.00000000
Si       3.64040775      -0.41234877       0.33790240       0.00000000
Si      -1.48638105       2.80443753      -1.88321600       0.00000000
