10
Lattice="16.28999089631971 0.0 0.0 0.0 16.28999089631971 0.0 0.0 0.0 34.54679606040008" Properties=species:S:1:pos:R:3:initial_magmoms:R:1 pbc="T T T"
Si      -1.35552348       1.35375609       1.36211184       0.00000000
Si       1.37360538       1.35335015      -1.34587483       0.00000000
Si       1.35865116      -1.36151820       1.36142090       0.00000000
Si      -1.36764324      -1.36560699      -1.36504832       0.00000000
Si       0.02653641       2.68575741      -2.69317645       0.00000000
Si       2.69469180      -0.03091842      -2.70828723       0.00000000
Si      -2.71448415       2.71141416      -0.00124369       0.00000000
Si       2.71629234       2.70962226       0.00383470       0.00000000
Si      -2.71278999      -2.71679733       0.00362742       0.00000000
Si       0.00208512       2.71173181       2.71931802       0.00000000
