10
Lattice="16.28999089631971 0.0 0.0 0.0 16.28999089631971 0.0 0.0 0.0 34.54679606040008" Properties=species:S:1:pos:R:3:initial_magmoms:R:1 pbc="T T T"
Si       0.93094092      -1.46365650       1.53412043       0.00000000
Si       1.73185506       1.16898703      -1.05447245       0.00000000
Si      -1.21955085      -1.73703528      -1.08473546       0.00000000
Si      -1.89421749       1.47264762       0.08522699       0.00000000
Si       0.30775068       2.37597862      -2.50080942       0.00000000
Si      -2.42398458      -0.34759602      -2.51113892       0.00000000
Si      -2.35287873       1.21592374       2.39488888       0.00000000
Si      -0.83354301      -2.99159334       2.15050471       0.00000000
Si      -1.10716614       3.56520401      -1.01329264       0.00000000
Si       2.68076385      -2.76236046       0.45733074       0.00000000
