10
Lattice="16.28999089631971 0.0 0.0 0.0 16.28999089631971 0.0 0.0 0.0 34.54679606040008" Properties=species:S:1:pos:R:3:initial_magmoms:R:1 pbc="T T T"
Si       1.34694191       1.35746199      -1.37344319       0.00000000
Si      -1.45113342       1.25333631       1.36998851       0.00000000
Si      -1.36675122      -1.35527913      -1.37257952       0.00000000
Si       1.28086967      -1.35668007       1.53405134       0.00000000
Si      -2.41538739      -0.60136164       2.59795506       0.00000000
Si      -0.73952202      -2.32772697       2.71441238       0.00000000
Si       2.69220269      -2.69954622       0.00656389       0.00000000
Si       2.69203979       2.72603376      -0.01271323       0.00000000
Si       2.70663563       0.00114030      -2.73127122       0.00000000
Si      -2.72647752       2.71458189      -0.00179643       0.00000000
