10
Lattice="16.28999089631971 0.0 0.0 0.0 16.28999089631971 0.0 0.0 0.0 34.54679606040008" Properties=species:S:1:pos:R:3:initial_magmoms:R:1 pbc="T T T"
Si      -2.15259318       0.97430490       0.23920215       0.00000000
Si      -0.70134966      -1.72623892      -1.48934776       0.00000000
Si       1.87274727       1.29088476      -0.72199389       0.00000000
Si       0.28543338      -0.73769917       2.28388996       0.00000000
Si      -3.04118010      -0.86713951       1.43428013       0.00000000
Si      -2.43253683      -2.60184599      -0.13566534       0.00000000
Si       3.62626803      -0.07407063       0.08070136       0.00000000
Si      -1.97125290      -0.57327768      -3.16794297       0.00000000
Si       1.31457042      -2.85116444      -2.10821941       0.00000000
Si       1.60241472       0.92875806       3.31259049       0.00000000
