10
Lattice="16.28999089631971 0.0 0.0 0.0 16.28999089631971 0.0 0.0 0.0 34.54679606040008" Properties=species:S:1:pos:R:3:initial_magmoms:R:1 pbc="T T T"
Si      -1.36366848      -1.36389654       1.33979459       0.00000000
Si      -1.35689184       1.35624024      -1.35834623       0.00000000
Si       1.35593955      -1.35944937      -1.35824259       0.00000000
Si       1.36675122       1.35527913       1.37257952       0.00000000
Si      -0.08438220       2.60861544       2.74256803       0.00000000
Si       2.71369313       2.71274112      -0.00086367       0.00000000
Si      -2.71368594       2.71300176       0.00020728       0.00000000
Si       0.00054374       2.71313208      -2.71634700       0.00000000
Si      -2.71467963      -0.00201996      -2.71586334       0.00000000
Si      -2.71495656      -2.71588509      -0.00566568       0.00000000
