10
Lattice="16.28999089631971 0.0 0.0 0.0 16.28999089631971 0.0 0.0 0.0 34.54679606040008" Properties=species:S:1:pos:R:3:initial_magmoms:R:1 pbc="T T T"
Si       1.47207843      -1.17274968      -1.37876340       0.00000000
Si       1.78711074       0.94506435       1.25197659       0.00000000
Si      -1.23602004       1.54505763      -1.34884586       0.00000000
Si      -1.02125268      -1.81107333       1.62967692       0.00000000
Si      -0.15887637       0.17054001       2.80651419       0.00000000
Si       0.86496642      -3.22936218       1.43683660       0.00000000
Si       2.70212004      -2.53527786       0.02767200       0.00000000
Si       0.12079035      -2.52473823      -2.72422367       0.00000000
Si      -2.59224399       0.18757935      -2.71845435       0.00000000
Si      -2.65168620      -2.68859934       0.12799595       0.00000000
