10
Lattice="16.28999089631971 0.0 0.0 0.0 16.28999089631971 0.0 0.0 0.0 34.54679606040008" Properties=species:S:1:pos:R:3:initial_magmoms:R:1 pbc="T T T"
Si      -1.28086967       1.35668007      -1.53405134       0.00000000
Si       1.41133302      -1.34286615      -1.52748744       0.00000000
Si       1.38406356       1.43917263       1.48326752       0.00000000
Si      -2.02039168      -0.97104690       1.18036104       0.00000000
Si       2.63565684       2.68115481      -0.13497441       0.00000000
Si      -2.73200309       2.61001638      -0.16406283       0.00000000
Si       2.86386345      -2.55093255      -0.11227715       0.00000000
Si      -2.78124776      -2.72502378      -0.16040086       0.00000000
Si      -3.69625706       0.75531843       1.06390373       0.00000000
Si      -2.64762089       0.00140094      -2.90663086       0.00000000
