10
Lattice="16.28999089631971 0.0 0.0 0.0 16.28999089631971 0.0 0.0 0.0 34.54679606040008" Properties=species:S:1:pos:R:3:initial_magmoms:R:1 pbc="T T T"
Si      -1.78711074      -0.94506435      -1.25197659       0.00000000
Si       1.67586537      -1.72636533       0.11645731       0.00000000
Si       0.96425397       1.85469795      -1.22796655       0.00000000
Si      -1.94598711      -0.77452434       1.55453760       0.00000000
Si      -0.08265546      -0.52999515       3.20480442       0.00000000
Si      -0.31503231      -2.11781403      -2.63073999       0.00000000
Si       2.41538739       0.60136164      -2.59795506       0.00000000
Si       1.35700165      -2.33792451       2.45911141       0.00000000
Si       0.91500930      -3.48034221      -1.22430459       0.00000000
Si       3.69625706      -0.75531843      -1.06390373       0.00000000
