10
Lattice="16.28999089631971 0.0 0.0 0.0 16.28999089631971 0.0 0.0 0.0 34.54679606040008" Properties=species:S:1:pos:R:3:initial_magmoms:R:1 pbc="T T T"
Si       1.50344061      -0.51816861      -1.73732480       0.00000000
Si       1.16191587      -1.03061943       1.78707221       0.00000000
Si       0.06613740       2.36723022       0.40129581       0.00000000
Si      -2.27208033      -0.76706352      -0.24569695       0.00000000
Si      -1.57812633       2.45982258       2.06237578       0.00000000
Si       3.43584512      -0.71702064       1.11734765       0.00000000
Si       3.55248152       0.43142436      -0.96655080       0.00000000
Si      -2.02642713      -2.90639664      -1.30162036       0.00000000
Si       0.70183903       0.51259743      -3.67509022       0.00000000
Si       0.14340087      -0.18062352       3.78591640       0.00000000
