10
Lattice="16.28999089631971 0.0 0.0 0.0 16.28999089631971 0.0 0.0 0.0 34.54679606040008" Properties=species:S:1:pos:R:3:initial_magmoms:R:1 pbc="T T T"
Si       1.06756515       1.67842386       1.22319909       0.00000000
Si       0.80128881      -2.10694860       0.73007785       0.00000000
Si      -2.28972240       0.00045612       0.78739102       0.00000000
Si       0.82596816       0.39451122      -2.24858312       0.00000000
Si      -3.43490940      -0.12290805      -1.19279789       0.00000000
Si       0.84165543      -1.91580174       3.08990171       0.00000000
Si      -0.51569253      -3.77340583      -0.29862267       0.00000000
Si       3.24144936       0.98095122       1.78303023       0.00000000
Si       3.09804849       1.16157474      -2.00288617       0.00000000
Si       1.07162136      -1.74482190      -3.30450653       0.00000000
