10
Lattice="16.28999089631971 0.0 0.0 0.0 16.28999089631971 0.0 0.0 0.0 34.54679606040008" Properties=species:S:1:pos:R:3:initial_magmoms:R:1 pbc="T T T"
Si      -2.17388421       0.69747264      -0.55983114       0.00000000
Si       0.93122829       2.11352976       0.54487237       0.00000000
Si       1.01851500      -0.84999591      -1.99884419       0.00000000
Si      -0.79920369      -1.19412216       1.92125204       0.00000000
Si      -1.72152720       2.64044610      -1.72354062       0.00000000
Si      -3.09483936       1.65353274       1.42944358       0.00000000
Si      -0.14340087       0.18062352      -3.78591640       0.00000000
Si       1.37863803       2.06606070       2.87484779       0.00000000
Si      -3.24144936      -0.98095122      -1.78303023       0.00000000
Si      -0.69926454       3.82876902       0.00141642       0.00000000
