10
Lattice="16.28999089631971 0.0 0.0 0.0 16.28999089631971 0.0 0.0 0.0 34.54679606040008" Properties=species:S:1:pos:R:3:initial_magmoms:R:1 pbc="T T T"
Si      -1.55496195       1.33366230       1.21290414       0.00000000
Si       0.79920369       1.19412216      -1.92125204       0.00000000
Si       1.78854819      -0.29401821       1.57751123       0.00000000
Si      -1.60059024      -1.70263080      -0.61438056       0.00000000
Si       0.19860768       2.42108496       2.32372244       0.00000000
Si      -1.37468052       1.89159480      -2.48108319       0.00000000
Si       2.50136927      -2.35325340       0.40160673       0.00000000
Si      -2.29563567       2.84765490      -0.49180846       0.00000000
Si       0.86844126       0.63495162       3.73167790       0.00000000
Si      -1.64095686      -1.89377766      -2.97420443       0.00000000
