10
Lattice="16.28999089631971 0.0 0.0 0.0 16.28999089631971 0.0 0.0 0.0 34.54679606040008" Properties=species:S:1:pos:R:3:initial_magmoms:R:1 pbc="T T T"
Si       1.75356963       1.08742266       1.11081830       0.00000000
Si       1.55496195      -1.33366230      -1.21290414       0.00000000
Si      -0.74067372       1.51399260      -1.70471260       0.00000000
Si      -3.13465212      -0.53424684       0.06235700       0.00000000
Si      -0.04654053       2.06593038       2.49466008       0.00000000
Si      -2.20525875      -2.45469123      -1.02255119       0.00000000
Si      -0.04562829      -3.03629310      -1.82728471       0.00000000
Si       2.42340321      -0.69871068       2.51877376       0.00000000
Si       3.34351014      -1.62768051       0.36460709       0.00000000
Si       0.18028143       0.55793250      -3.69398733       0.00000000
