10
Lattice="16.28999089631971 0.0 0.0 0.0 16.28999089631971 0.0 0.0 0.0 34.54679606040008" Properties=species:S:1:pos:R:3:initial_magmoms:R:1 pbc="T T T"
Si      -1.35669636      -1.35565380      -1.35789712       0.00000000
Si       1.35772031       1.35656604      -1.35779348       0.00000000
Si       1.35810347      -1.35755973       1.35679163       0.00000000
Si      -1.35752715       1.35762489       1.35734438       0.00000000
Si       0.00001629       2.71350675       2.71524150       0.00000000
Si       0.00066789      -2.71445157       2.71479239       0.00000000
Si      -2.71505430      -2.71450044      -0.00020728       0.00000000
Si       0.00144981       2.71415835      -2.71582880       0.00000000
Si       2.71525534       2.71474479       0.00006909       0.00000000
Si       2.71647383       0.00004887       2.71361780       0.00000000
