10
Lattice="16.28999089631971 0.0 0.0 0.0 16.28999089631971 0.0 0.0 0.0 34.54679606040008" Properties=species:S:1:pos:R:3:initial_magmoms:R:1 pbc="T T T"
Si       1.35754344       1.35588186       1.35789712       0.00000000
Si       1.35752715      -1.35762489      -1.35734438       0.00000000
Si      -1.35786924       1.35741312      -1.35737892       0.00000000
Si      -1.35905841      -1.35742941       1.35824259       0.00000000
Si       0.00083079      -2.71327869      -2.71524150       0.00000000
Si      -2.71515204      -0.00003258      -2.71375599       0.00000000
Si      -2.71586880      -0.00091224       2.71323779       0.00000000
Si      -2.71467963      -2.71482624      -0.00017273       0.00000000
Si      -2.71502172       2.71497285      -0.00038001       0.00000000
Si      -0.00037467       2.71433754      -2.71572516       0.00000000
