10
Lattice="16.28999089631971 0.0 0.0 0.0 16.28999089631971 0.0 0.0 0.0 34.54679606040008" Properties=species:S:1:pos:R:3:initial_magmoms:R:1 pbc="T T T"
Si      -1.02837141       1.86248457      -1.07250588       0.00000000
Si       0.66403989       0.79780275       2.17340925       0.00000000
Si       1.77165220      -1.10879514      -1.33126153       0.00000000
Si      -0.09888030      -1.26579816       3.07411382       0.00000000
Si      -1.98259074       0.32892768      -2.66048480       0.00000000
Si      -3.21522246      -1.11907413      -1.20640934       0.00000000
Si       2.75738291      -2.33512263       0.35089200       0.00000000
Si       0.58674951      -2.61158022      -2.64711518       0.00000000
Si      -3.22305795      -1.70456931       1.15469276       0.00000000
Si       0.60711201       3.01856958      -2.32234057       0.00000000
