10
Lattice="16.28999089631971 0.0 0.0 0.0 16.28999089631971 0.0 0.0 0.0 34.54679606040008" Properties=species:S:1:pos:R:3:initial_magmoms:R:1 pbc="T T T"
Si       1.39010715      -1.80954207       0.54380142       0.00000000
Si      -0.17148483      -0.08099388      -2.37937736       0.00000000
Si       1.45319832       1.80458991       0.64094707       0.00000000
Si      -2.62430271      -0.27464940       0.77574874       0.00000000
Si      -2.46817935      -0.09604584      -1.69110116       0.00000000
Si       1.07794188      -1.60166538       3.06613350       0.00000000
Si       3.11953500      -1.87476723      -1.10708725       0.00000000
Si       0.39498363       3.78353169      -0.12557767       0.00000000
Si       3.72395916       1.49477040      -0.24110222       0.00000000
Si       0.40806450       1.85078835      -3.59276516       0.00000000
