10
Lattice="16.28999089631971 0.0 0.0 0.0 16.28999089631971 0.0 0.0 0.0 34.54679606040008" Properties=species:S:1:pos:R:3:initial_magmoms:R:1 pbc="T T T"
Si      -0.45235701      -1.94297346       1.16370948       0.00000000
Si      -1.91558997       1.00053180      -0.84508420       0.00000000
Si       1.02226266       1.18832292       1.72495704       0.00000000
Si       1.64426373      -0.09259236      -1.66107998       0.00000000
Si       2.65275549      -0.52691634       2.26841299       0.00000000
Si       1.57812633      -2.45982258      -2.06237578       0.00000000
Si      -1.37331216      -0.98691336       3.15298420       0.00000000
Si       1.72152720      -2.64044610       1.72354062       0.00000000
Si       1.48722813       3.24405576       0.62813020       0.00000000
Si      -0.70716519       1.25354808       3.37584570       0.00000000
