10
Lattice="16.28999089631971 0.0 0.0 0.0 16.28999089631971 0.0 0.0 0.0 34.54679606040008" Properties=species:S:1:pos:R:3:initial_magmoms:R:1 pbc="T T T"
Si      -0.80160158       1.03076604      -1.93776542       0.00000000
Si      -1.50344061       0.51816861       1.73732480       0.00000000
Si       0.70182533      -2.24160174      -0.36208517       0.00000000
Si       2.04904091       0.94959297       0.77077400       0.00000000
Si       1.93240451      -0.19885203       2.85467245       0.00000000
Si       2.70036398      -1.66465881      -1.45483549       0.00000000
Si      -0.34152474      -0.51245082       3.52439701       0.00000000
Si       1.15284656       1.08563076      -3.37988768       0.00000000
Si      -1.14648043       3.32161245      -1.54738641       0.00000000
Si      -0.62538287      -3.17107656      -2.10745938       0.00000000
