10
Lattice="16.28999089631971 0.0 0.0 0.0 16.28999089631971 0.0 0.0 0.0 34.54679606040008" Properties=species:S:1:pos:R:3:initial_magmoms:R:1 pbc="T T T"
Si      -1.78854819       0.29401821      -1.57751123       0.00000000
Si       0.71282108      -2.05923519      -1.17590450       0.00000000
Si       1.75554398       1.80252108       0.11210442       0.00000000
Si      -0.92010693       0.92896983       2.15416667       0.00000000
Si      -1.58994051       2.71510317       0.74621121       0.00000000
Si       2.65491488      -2.28607344       0.16544470       0.00000000
Si       0.38929353       3.55420107      -0.62391549       0.00000000
Si      -3.34351014       1.62768051      -0.36460709       0.00000000
Si      -0.98934450       1.48814037      -3.49876327       0.00000000
Si       1.74213731      -1.49314140      -3.27610905       0.00000000
