10
Lattice="16.28999089631971 0.0 0.0 0.0 16.28999089631971 0.0 0.0 0.0 34.54679606040008" Properties=species:S:1:pos:R:3:initial_magmoms:R:1 pbc="T T T"
Si       1.29722157      -0.44336493      -1.90757150       0.00000000
Si      -0.11095119       2.26307196       0.72164843       0.00000000
Si       0.91098567      -0.93296088       2.02917629       0.00000000
Si      -2.14499294      -0.85981878      -0.76517741       0.00000000
Si      -1.13650117      -1.29414276       3.16431555       0.00000000
Si       1.82676060       2.41251642       2.08866591       0.00000000
Si      -2.30202854       2.47682934       1.52403276       0.00000000
Si       0.13352913       0.65466252      -3.66324066       0.00000000
Si       1.34135118      -2.79562464      -2.13302402       0.00000000
Si       3.39423327       0.60302322      -1.57029095       0.00000000
