10
Lattice="16.28999089631971 0.0 0.0 0.0 16.28999089631971 0.0 0.0 0.0 34.54679606040008" Properties=species:S:1:pos:R:3:initial_magmoms:R:1 pbc="T T T"
Si       1.33928235       1.34133038      -1.37848012       0.00000000
Si      -1.35761579       1.35075051       1.35661889       0.00000000
Si      -1.36248650      -1.35645201      -1.35000663       0.00000000
Si       1.35726651      -1.36353816       1.35496065       0.00000000
Si       2.52112185      -0.22421556      -2.72854893       0.00000000
Si      -0.05145522      -2.76516234      -2.62409318       0.00000000
Si      -2.71458908       2.70714618      -0.00293648       0.00000000
Si       0.00053757       2.70909120       2.71303050       0.00000000
Si       2.71823085       2.70778474      -0.00535476       0.00000000
Si      -2.71458908      -0.00503361       2.71296141       0.00000000
