10
Lattice="16.28999089631971 0.0 0.0 0.0 16.28999089631971 0.0 0.0 0.0 34.54679606040008" Properties=species:S:1:pos:R:3:initial_magmoms:R:1 pbc="T T T"
Si      -0.23514615      -2.29861674      -0.52238240       0.00000000
Si      -2.22283892       0.73745712      -0.44016097       0.00000000
Si       1.91511756       0.78769026      -1.20710028       0.00000000
Si       0.72816300       0.66780855       2.19893934       0.00000000
Si      -1.48182962      -3.44118105       1.10826184       0.00000000
Si      -0.49502052       2.70968579       2.79677198       0.00000000
Si       3.13812189       0.85516980       2.20339588       0.00000000
Si      -2.25508660       3.09224015      -0.89724989       0.00000000
Si      -3.68684144       0.38931471       1.43065272       0.00000000
Si      -3.22441721      -0.29739024      -2.32403336       0.00000000
