10
Lattice="16.28999089631971 0.0 0.0 0.0 16.28999089631971 0.0 0.0 0.0 34.54679606040008" Properties=species:S:1:pos:R:3:initial_magmoms:R:1 pbc="T T T"
Si       0.17184321      -1.76625954       1.57398745       0.00000000
Si      -0.72816300      -0.66780855      -2.19893934       0.00000000
Si       2.40995889       0.18736125       0.00445654       0.00000000
Si      -1.22318352       2.04187724       0.59783264       0.00000000
Si       1.18695456       0.11988171      -3.40603962       0.00000000
Si       0.61434477       3.23751437       1.49729352       0.00000000
Si      -1.68269184      -3.06131454       0.96330340       0.00000000
Si       3.13323489       2.16561608      -0.96537621       0.00000000
Si       3.29390316       0.45282357       2.13720419       0.00000000
Si      -2.95100192       0.06964857      -2.63910032       0.00000000
