10
Lattice="16.28999089631971 0.0 0.0 0.0 16.28999089631971 0.0 0.0 0.0 34.54679606040008" Properties=species:S:1:pos:R:3:initial_magmoms:R:1 pbc="T T T"
Si      -0.07843635      -1.62487863       1.67341319       0.00000000
Si       1.85453505       1.29505500       0.61068406       0.00000000
Si      -0.52730078      -1.04767506      -2.05398091       0.00000000
Si      -1.94838728       1.39434255       0.07873219       0.00000000
Si      -3.32482877      -0.48596328       0.40450866       0.00000000
Si       1.68269184       3.06131454      -0.96330340       0.00000000
Si      -2.26951370      -1.41112125       2.47579752       0.00000000
Si      -2.92197707      -1.30078908      -1.80842214       0.00000000
Si       1.15895205       2.05203501       2.86310187       0.00000000
Si       0.71938269       0.09488925      -3.68462514       0.00000000
