10
Lattice="16.28999089631971 0.0 0.0 0.0 16.28999089631971 0.0 0.0 0.0 34.49183129400761" Properties=species:S:1:pos:R:3:initial_magmoms:R:1 pbc="T T T"
Si      -0.14312394       2.08622772      -1.17475794       0.00000000
Si      -1.37588598      -1.47958812      -1.40147287       0.00000000
Si       2.21469066      -1.17045279       0.00731227       0.00000000
Si      -0.44585730       0.43929243       2.46423577       0.00000000
Si       1.13898051       3.40916047       0.96566834       0.00000000
Si       1.67912433       2.33728920      -2.68408683       0.00000000
Si       0.06226038      -3.19627719      -2.32099112       0.00000000
Si       2.31344064      -2.60216460      -1.93371662       0.00000000
Si      -2.85154870      -2.87754705       0.18394504       0.00000000
Si      -2.27267166       2.03186799       2.86466688       0.00000000
