10
Lattice="16.28999089631971 0.0 0.0 0.0 16.28999089631971 0.0 0.0 0.0 34.49183129400761" Properties=species:S:1:pos:R:3:initial_magmoms:R:1 pbc="T T T"
Si       1.36818896      -1.32118400       1.35853052       0.00000000
Si      -1.34029137      -1.35916659      -1.36028960       0.00000000
Si       1.37346692       1.35828952      -1.35625406       0.00000000
Si      -1.40339883       1.31940529       1.44269063       0.00000000
Si       2.18216767       0.49796575       2.64538697       0.00000000
Si       0.25813949       2.42458405       2.82529646       0.00000000
Si      -0.19532362      -2.52072504       2.77480039       0.00000000
Si      -2.69258943      -2.71539054       0.01076146       0.00000000
Si      -2.69597775      -0.00176909      -2.71537094       0.00000000
Si      -2.69560308       2.71957966       0.01414166       0.00000000
