10
Lattice="16.28999089631971 0.0 0.0 0.0 16.28999089631971 0.0 0.0 0.0 34.49183129400761" Properties=species:S:1:pos:R:3:initial_magmoms:R:1 pbc="T T T"
Si      -1.33675740      -1.35503486       1.37405185       0.00000000
Si      -1.35456237       1.35788286      -1.35966875       0.00000000
Si       1.35987291      -1.35817883      -1.35925485       0.00000000
Si       1.36124127       1.35732738       1.38871089       0.00000000
Si       2.71389771       2.71501254       0.00169010       0.00000000
Si      -2.71295289      -0.00045326      -2.71688858       0.00000000
Si      -2.71362078       2.71690218      -0.00110374       0.00000000
Si      -2.71606428      -2.71448423       0.00124171       0.00000000
Si       0.00249237       2.71458900      -2.71723350       0.00000000
Si       0.00263898      -2.71559195      -2.71692307       0.00000000
