10
Lattice="16.28999089631971 0.0 0.0 0.0 16.28999089631971 0.0 0.0 0.0 34.49183129400761" Properties=species:S:1:pos:R:3:initial_magmoms:R:1 pbc="T T T"
Si      -2.18895246      -0.45344844       0.74485151       0.00000000
Si       1.48239000      -1.15123059       1.45834993       0.00000000
Si       0.25047504      -1.30390047      -1.97148519       0.00000000
Si       0.80624097       2.30982426      -0.33615758       0.00000000
Si       3.27572352      -0.94310955      -0.08636759       0.00000000
Si       2.49812037      -0.86431482      -2.29298373       0.00000000
Si      -3.48248109       0.50181345      -0.99319284       0.00000000
Si      -1.05402816       3.51587070       0.46426031       0.00000000
Si       2.44820781       2.59636536       1.32445257       0.00000000
Si       0.88681131       2.15754534       3.04763093       0.00000000
