10
Lattice="16.28999089631971 0.0 0.0 0.0 16.28999089631971 0.0 0.0 0.0 34.49183129400761" Properties=species:S:1:pos:R:3:initial_magmoms:R:1 pbc="T T T"
Si      -1.24918236       1.41915222       1.47739288       0.00000000
Si      -1.18324044      -1.58019516      -1.38963324       0.00000000
Si       1.19257461       1.32349734      -1.64249300       0.00000000
Si       1.45543005      -1.29130830       1.48304265       0.00000000
Si      -2.59776630       0.05753628       2.85398334       0.00000000
Si      -2.55466296       2.90708082       0.04317690       0.00000000
Si       2.73303846      -2.76524379       0.16694746       0.00000000
Si      -0.51052860       2.34548307      -3.07518099       0.00000000
Si       0.11556126      -2.65616595       2.85698413       0.00000000
Si      -2.70638802      -2.82882366      -0.01900501       0.00000000
