10
Lattice="16.28999089631971 0.0 0.0 0.0 16.28999089631971 0.0 0.0 0.0 34.49183129400761" Properties=species:S:1:pos:R:3:initial_magmoms:R:1 pbc="T T T"
Si      -1.35695700       1.35736425       1.35746127       0.00000000
Si      -1.35677781      -1.35762489      -1.35797865       0.00000000
Si       1.35749457      -1.35759231       1.35770271       0.00000000
Si       1.35778779       1.35725022      -1.35815111       0.00000000
Si      -2.71195920       0.00105885       2.71543992       0.00000000
Si      -0.00024435      -2.71379997       2.71392228       0.00000000
Si       0.00234576       2.71562445       2.71364634       0.00000000
Si      -2.71490769       2.71464705      -0.00031043       0.00000000
Si       2.71487511       0.00185706       2.71481907       0.00000000
Si      -2.71485882      -2.71487511       0.00010348       0.00000000
