10
Lattice="16.28999089631971 0.0 0.0 0.0 16.28999089631971 0.0 0.0 0.0 34.49183129400761" Properties=species:S:1:pos:R:3:initial_magmoms:R:1 pbc="T T T"
Si       1.35500220       1.35630540      -1.35797865       0.00000000
Si       1.35446463      -1.36202319       1.35349471       0.00000000
Si      -1.36158336       1.35586557       1.35797865       0.00000000
Si      -1.35997065      -1.35871632      -1.35818560       0.00000000
Si       2.71171485      -2.71485882      -0.00151764       0.00000000
Si       2.71195920      -0.00105885      -2.71543992       0.00000000
Si       2.71430496       2.71456560      -0.00179358       0.00000000
Si      -0.00294849       2.71358820      -2.71575035       0.00000000
Si       0.00651600       2.70418887       2.72609790       0.00000000
Si      -2.71794415       2.71280628      -0.00065535       0.00000000
