10
Lattice="16.28999089631971 0.0 0.0 0.0 16.28999089631971 0.0 0.0 0.0 34.49183129400761" Properties=species:S:1:pos:R:3:initial_magmoms:R:1 pbc="T T T"
Si       0.85849929      -1.92350691      -1.09632347       0.00000000
Si      -1.29599982      -0.88954803       1.81409888       0.00000000
Si       2.21055300       0.79127046       0.56549389       0.00000000
Si      -0.92872548       2.02279446      -1.19262472       0.00000000
Si       0.34596702      -0.60300693       3.47470903       0.00000000
Si       1.59627339       2.69956251       1.72479948       0.00000000
Si      -0.27984591       3.57788673       0.51258339       0.00000000
Si       3.08705274       1.67005080      -1.47066352       0.00000000
Si      -2.75032215      -1.35101115      -2.63624663       0.00000000
Si       3.55698666      -0.83522088       1.81654780       0.00000000
