10
Lattice="16.28999089631971 0.0 0.0 0.0 16.28999089631971 0.0 0.0 0.0 34.49183129400761" Properties=species:S:1:pos:R:3:initial_magmoms:R:1 pbc="T T T"
Si      -1.35591444       1.35141840       1.35977223       0.00000000
Si       1.35557235       1.35668007      -1.35649550       0.00000000
Si       1.35503478      -1.35853713       1.35580566       0.00000000
Si      -1.35930276      -1.35826020      -1.35618507       0.00000000
Si       2.71252935      -2.71376739       0.00117272       0.00000000
Si       2.71316466      -0.00060273      -2.71385329       0.00000000
Si      -0.00184077       2.71454931      -2.71395677       0.00000000
Si      -2.71430496      -2.71456560       0.00179358       0.00000000
Si       2.71472850       2.71441899       0.00113823       0.00000000
Si      -0.00234576      -2.71562445      -2.71364634       0.00000000
