10
Lattice="16.28999089631971 0.0 0.0 0.0 16.28999089631971 0.0 0.0 0.0 34.49183129400761" Properties=species:S:1:pos:R:3:initial_magmoms:R:1 pbc="T T T"
Si      -0.28759523       1.19010668       2.00097573       0.00000000
Si       2.17637169       0.35678032      -0.82114749       0.00000000
Si       0.04698199      -2.22384631       0.81642210       0.00000000
Si      -1.67882689       1.10997291      -1.25646913       0.00000000
Si       3.61257954      -0.79182499       0.68462874       0.00000000
Si       2.56239582       2.67560644      -0.82594185       0.00000000
Si       2.31851823      -0.69573028      -2.92735785       0.00000000
Si       1.32429066      -3.57925576      -0.63820271       0.00000000
Si      -0.26352936       3.51907006       1.74038980       0.00000000
Si       1.36899042      -2.32062520       2.86865272       0.00000000
