10
Lattice="16.28999089631971 0.0 0.0 0.0 16.28999089631971 0.0 0.0 0.0 34.49183129400761" Properties=species:S:1:pos:R:3:initial_magmoms:R:1 pbc="T T T"
Si      -2.20239171      -0.45976896       0.64265216       0.00000000
Si       1.72506213      -1.12058910       1.12136455       0.00000000
Si       0.41876703       2.30988032      -0.15442002       0.00000000
Si       0.03738555      -1.34052039      -1.95848177       0.00000000
Si      -0.57824613      -3.41420481      -0.91013646       0.00000000
Si      -2.42292573      -2.79401193       0.31787689       0.00000000
Si       1.35024552      -3.45227454       0.53710710       0.00000000
Si       2.21210055       2.51800136      -1.69913754       0.00000000
Si      -1.22715828      -0.22027338      -3.58277199       0.00000000
Si      -3.63859956       0.68883635      -0.86312407       0.00000000
