10
Lattice="16.28999089631971 0.0 0.0 0.0 16.28999089631971 0.0 0.0 0.0 34.49183129400761" Properties=species:S:1:pos:R:3:initial_magmoms:R:1 pbc="T T T"
Si       1.81885995      -1.44265869      -0.15348874       0.00000000
Si      -1.30295565       0.06675642      -1.96048229       0.00000000
Si      -1.82224827      -0.25106148       1.50932889       0.00000000
Si       1.30069134       1.85241639       0.75619933       0.00000000
Si      -2.65636143       1.81227294      -1.38598603       0.00000000
Si       0.91948905       3.52495142      -0.87643792       0.00000000
Si       1.02358215      -3.50342514      -1.11846724       0.00000000
Si      -0.54014382       1.07187127       3.64975517       0.00000000
Si       3.56703759      -0.38579607      -1.40812980       0.00000000
Si      -2.81934288      -1.74625542      -1.98569584       0.00000000
