10
Lattice="16.28999089631971 0.0 0.0 0.0 16.28999089631971 0.0 0.0 0.0 34.49183129400761" Properties=species:S:1:pos:R:3:initial_magmoms:R:1 pbc="T T T"
Si       0.78462414       1.21757976       1.82630900       0.00000000
Si      -0.71552196       0.82494189      -2.10790046       0.00000000
Si       1.81120365      -1.14096789      -1.08338903       0.00000000
Si      -1.99881558      -1.24014141       0.73698737       0.00000000
Si       2.38161429       2.47720401       0.46191486       0.00000000
Si      -1.90006560      -2.67185322      -1.20404152       0.00000000
Si      -1.51079976      -1.23582456      -3.07287897       0.00000000
Si       1.65516174      -0.29699928       3.35019345       0.00000000
Si       2.76208353       0.46916829      -2.58409495       0.00000000
Si       3.39613920      -1.14531732       1.33266163       0.00000000
