10
Lattice="16.28999089631971 0.0 0.0 0.0 16.28999089631971 0.0 0.0 0.0 34.49183129400761" Properties=species:S:1:pos:R:3:initial_magmoms:R:1 pbc="T T T"
Si      -0.95421933       0.05701500      -2.10440786       0.00000000
Si      -1.79675442      -1.01770146       1.04721397       0.00000000
Si       1.13003730       1.86764850       1.01427081       0.00000000
Si       1.77523533      -1.71844839      -0.01614219       0.00000000
Si      -0.35802162      -2.28009501       2.39785276       0.00000000
Si       2.39909346       0.45955719       2.38284535       0.00000000
Si       1.39895262      -2.26046556      -2.23506299       0.00000000
Si       1.03024476      -0.23265378      -3.32452258       0.00000000
Si      -2.69275329      -2.32169967      -0.72173304       0.00000000
Si       2.19597345       3.02692635      -0.73701293       0.00000000
