10
Lattice="16.28999089631971 0.0 0.0 0.0 16.28999089631971 0.0 0.0 0.0 34.49183129400761" Properties=species:S:1:pos:R:3:initial_magmoms:R:1 pbc="T T T"
Si      -0.68833395       1.88727795       1.29861817       0.00000000
Si       2.42496198       0.18125883       0.07050134       0.00000000
Si      -0.57106224      -2.01924324       1.28268294       0.00000000
Si      -0.58489245      -0.10041156      -2.48744879       0.00000000
Si       1.18895823      -1.85005530      -2.76907475       0.00000000
Si       3.00314295      -1.85736951      -1.09373658       0.00000000
Si      -2.91688740      -1.70627976       1.67295823       0.00000000
Si      -1.56483369       1.00849761       3.33477559       0.00000000
Si       1.02390795       3.58137279       1.50719039       0.00000000
Si       0.85519242      -2.25491067       3.22688508       0.00000000
