10
Lattice="16.28999089631971 0.0 0.0 0.0 16.28999089631971 0.0 0.0 0.0 34.49183129400761" Properties=species:S:1:pos:R:3:initial_magmoms:R:1 pbc="T T T"
Si       0.95421933      -0.05701500       2.10440786       0.00000000
Si      -1.36350558       1.77044607      -0.63992730       0.00000000
Si       1.98446409      -0.28966878      -1.22011472       0.00000000
Si      -1.73853396      -2.37871467       1.38267481       0.00000000
Si      -2.37700422       0.17788680      -2.23869356       0.00000000
Si       2.35317195      -2.31748056      -0.13065513       0.00000000
Si      -0.84253509      -1.07471646       3.15162183       0.00000000
Si       0.15718221      -3.49053649       0.21005537       0.00000000
Si      -3.38773356      -1.17379224      -0.01165825       0.00000000
Si       0.29791152       3.21461973      -1.64664095       0.00000000
