10
Lattice="16.28999089631971 0.0 0.0 0.0 16.28999089631971 0.0 0.0 0.0 34.49183129400761" Properties=species:S:1:pos:R:3:initial_magmoms:R:1 pbc="T T T"
Si      -1.35557235      -1.35668007       1.35649550       0.00000000
Si       1.35759231      -1.35728280      -1.35735780       0.00000000
Si      -1.35741312       1.35786924      -1.35746127       0.00000000
Si       1.35915615       1.35773892       1.35763373       0.00000000
Si      -0.00053757      -2.71521720       2.71230116       0.00000000
Si      -2.71148679      -0.00526167       2.71626772       0.00000000
Si      -0.00024435       2.71363707       2.71519848       0.00000000
Si       2.71489140      -2.71489140       0.00055187       0.00000000
Si      -2.71487511      -2.71494027       0.00031043       0.00000000
Si       2.71498914       2.71508688      -0.00006898       0.00000000
