10
Lattice="16.28999089631971 0.0 0.0 0.0 16.28999089631971 0.0 0.0 0.0 34.49183129400761" Properties=species:S:1:pos:R:3:initial_magmoms:R:1 pbc="T T T"
Si       0.86786604       1.67832612      -1.32448706       0.00000000
Si      -1.78930989      -0.95158035      -1.20866343       0.00000000
Si       1.70401545      -1.67220108       0.13227625       0.00000000
Si      -0.51499206       1.56758670       1.78905780       0.00000000
Si       2.28048597       0.37998054      -2.59892645       0.00000000
Si      -0.44973432      -2.33867385      -2.57343697       0.00000000
Si      -2.78189217      -2.10131226       0.54338461       0.00000000
Si       2.51454069       2.72419299       0.02335098       0.00000000
Si      -1.01098998       0.03938922       3.66199977       0.00000000
Si       1.75273884       2.53377918       2.33271835       0.00000000
