10
Lattice="16.28999089631971 0.0 0.0 0.0 16.28999089631971 0.0 0.0 0.0 34.49183129400761" Properties=species:S:1:pos:R:3:initial_magmoms:R:1 pbc="T T T"
Si      -1.76295267       0.39065049       1.52740262       0.00000000
Si       1.78496046      -0.10658547       1.58772887       0.00000000
Si       0.49599792       1.52819748      -1.87294198       0.00000000
Si      -1.64336778      -1.77448599      -0.83008088       0.00000000
Si       3.03526683      -1.96217937       0.80990314       0.00000000
Si      -0.81163296       2.04472080       2.99447899       0.00000000
Si      -2.04387372      -1.74843828       2.58457784       0.00000000
Si       2.62228275       2.14115760       1.57293186       0.00000000
Si       1.01098998      -0.03938922      -3.66199977       0.00000000
Si       1.32302493      -3.65627421       0.60133092       0.00000000
