10
Lattice="16.28999089631971 0.0 0.0 0.0 16.28999089631971 0.0 0.0 0.0 34.49183129400761" Properties=species:S:1:pos:R:3:initial_magmoms:R:1 pbc="T T T"
Si       1.35721764       1.35669636       1.35766822       0.00000000
Si      -1.35795069      -1.35752715       1.35721983       0.00000000
Si       1.35661491      -1.35682668      -1.35949629       0.00000000
Si      -1.35988920       1.35485559      -1.36101393       0.00000000
Si       2.71264338       2.71507552      -0.00013797       0.00000000
Si      -0.00078192       2.71447255       2.71457762       0.00000000
Si       2.71445157      -0.00030951       2.71461212       0.00000000
Si       2.71549413      -2.71458189       0.00041390       0.00000000
Si      -0.00053757      -2.71539639       2.71468110       0.00000000
Si      -2.71542897      -0.00021177       2.71488805       0.00000000
