10
Lattice="16.28999089631971 0.0 0.0 0.0 16.28999089631971 0.0 0.0 0.0 34.49183129400761" Properties=species:S:1:pos:R:3:initial_magmoms:R:1 pbc="T T T"
Si       1.41261993      -1.29834558      -1.27443939       0.00000000
Si      -0.86786604      -1.67832612       1.32448706       0.00000000
Si      -1.31268078       1.42381116      -1.27188699       0.00000000
Si       1.64667465       1.04586687       1.34783804       0.00000000
Si      -1.38285810      -0.11073942       3.11354486       0.00000000
Si       0.04743648      -2.64450231      -2.61720713       0.00000000
Si      -2.67199983       0.06807591      -2.61424083       0.00000000
Si      -2.65717593      -2.62990647       0.11582363       0.00000000
Si       0.83614941      -3.35052720       1.45676331       0.00000000
Si      -2.47075317       2.82432389       0.16397426       0.00000000
