10
Lattice="16.28999089631971 0.0 0.0 0.0 16.28999089631971 0.0 0.0 0.0 34.49183129400761" Properties=species:S:1:pos:R:3:initial_magmoms:R:1 pbc="T T T"
Si      -1.02742659       2.04538869       0.17287316       0.00000000
Si      -1.73960910      -1.11739626      -1.08939061       0.00000000
Si       0.09358605      -0.53817273       2.29688131       0.00000000
Si       2.09720718      -0.51043086      -0.97422232       0.00000000
Si      -3.09389454       1.20922299       1.09494380       0.00000000
Si      -0.62532423      -2.88069102      -2.08168666       0.00000000
Si       1.67749533      -2.81333187      -1.54806324       0.00000000
Si      -3.46871115      -1.12246245       0.51068634       0.00000000
Si       2.37237786      -0.76532049       2.82833175       0.00000000
Si      -1.05785631       3.10501639      -1.90243251       0.00000000
