10
Lattice="16.28999089631971 0.0 0.0 0.0 16.28999089631971 0.0 0.0 0.0 34.49183129400761" Properties=species:S:1:pos:R:3:initial_magmoms:R:1 pbc="T T T"
Si      -1.35529568       1.35580041      -1.35501235       0.00000000
Si      -1.35609389      -1.35799956       1.35708186       0.00000000
Si       1.35919077       1.35658233       1.35759924       0.00000000
Si       1.36018771      -1.35804843      -1.36239361       0.00000000
Si      -2.68864847       0.01154961      -2.71410853       0.00000000
Si      -2.71285541       2.71349046       0.00051738       0.00000000
Si      -2.71349072      -0.00117288       2.71485356       0.00000000
Si       0.00177228       2.71445157       2.71437067       0.00000000
Si       2.71612007       2.71352304       0.00027593       0.00000000
Si      -2.71386539      -2.71622718       0.00003449       0.00000000
