10
Lattice="16.28999089631971 0.0 0.0 0.0 16.28999089631971 0.0 0.0 0.0 34.49183129400761" Properties=species:S:1:pos:R:3:initial_magmoms:R:1 pbc="T T T"
Si      -0.53551746       1.17351531       1.98704102       0.00000000
Si      -1.39766571       0.62244090      -1.81789298       0.00000000
Si      -0.64744605      -2.19757150       0.66327829       0.00000000
Si       2.30024804       0.32332392      -0.64423878       0.00000000
Si      -2.57487885      -1.50412086       1.96803601       0.00000000
Si      -2.06330769      -2.90085478      -1.10911995       0.00000000
Si       0.76785149       0.21152565       3.66013722       0.00000000
Si       3.59377667      -0.63193797       1.09380557       0.00000000
Si      -0.83352672       2.73484665      -2.56750437       0.00000000
Si       1.03138084      -3.30754441       1.91974742       0.00000000
