10
Lattice="16.28999089631971 0.0 0.0 0.0 16.28999089631971 0.0 0.0 0.0 34.49183129400761" Properties=species:S:1:pos:R:3:initial_magmoms:R:1 pbc="T T T"
Si       1.35765747       1.35681039      -1.35690940       0.00000000
Si       1.35702216      -1.35785295       1.35742678       0.00000000
Si      -1.35798327      -1.35777150      -1.35690940       0.00000000
Si      -1.35785295       1.35749457       1.35797865       0.00000000
Si       2.71521720      -0.00087966      -2.71243913       0.00000000
Si       2.71441899      -2.71467963      -0.00034492       0.00000000
Si       2.71476108       0.00040725       2.71454313       0.00000000
Si       2.71464705       2.71480995      -0.00010348       0.00000000
Si      -0.00029322       2.71586880       2.71385329       0.00000000
Si      -2.71515204       2.71510317       0.00006898       0.00000000
