10
Lattice="16.28999089631971 0.0 0.0 0.0 16.28999089631971 0.0 0.0 0.0 34.49183129400761" Properties=species:S:1:pos:R:3:initial_magmoms:R:1 pbc="T T T"
Si       1.35658233       1.35799956      -1.35780619       0.00000000
Si      -1.35817875      -1.35658233      -1.35794416       0.00000000
Si       1.35726651      -1.35764118       1.35963426       0.00000000
Si      -1.36060596       1.35944937       1.35818560       0.00000000
Si      -2.70319518      -0.00794952       2.72554603       0.00000000
Si      -0.00133578      -2.71421211      -2.71519848       0.00000000
Si       2.71397916       0.00117288      -2.71557789       0.00000000
Si       2.71621089      -2.71413229      -0.00089679       0.00000000
Si       2.71432125       2.71625976      -0.00068984       0.00000000
Si      -0.00043983       2.71585251      -2.71523297       0.00000000
