10
Lattice="16.28999089631971 0.0 0.0 0.0 16.28999089631971 0.0 0.0 0.0 34.49183129400761" Properties=species:S:1:pos:R:3:initial_magmoms:R:1 pbc="T T T"
Si       0.97277364       1.80524151      -1.09039087       0.00000000
Si       1.37114559      -0.25006779       1.93257839       0.00000000
Si       0.57818097      -2.03862834      -1.16423792       0.00000000
Si      -2.42496198      -0.18125883      -0.07050134       0.00000000
Si       1.72761966       0.30208176      -2.82429620       0.00000000
Si       3.06122838      -1.13798682      -1.36529092       0.00000000
Si       3.51541851       0.16575075       0.78403426       0.00000000
Si       2.76514605       2.32464816       0.37820314       0.00000000
Si       0.80700660      -2.36247354       2.68218978       0.00000000
Si      -1.23600375      -2.03131413      -2.83957609       0.00000000
