10
Lattice="16.28999089631971 0.0 0.0 0.0 16.28999089631971 0.0 0.0 0.0 34.49183129400761" Properties=species:S:1:pos:R:3:initial_magmoms:R:1 pbc="T T T"
Si      -2.11056498       0.66270978      -0.70711743       0.00000000
Si      -0.63516339      -2.24249769      -0.21916122       0.00000000
Si       0.57886515       0.11262906       2.29988210       0.00000000
Si       0.99388615       0.63982233      -2.12283544       0.00000000
Si      -1.29093363       0.72537741      -2.93122094       0.00000000
Si       2.89982267       0.40596309       1.95934406       0.00000000
Si       0.66820556      -3.20448735       1.45393498       0.00000000
Si      -2.34606951       2.83897233       0.08215959       0.00000000
Si      -0.13667310      -1.96586091       3.31797806       0.00000000
Si      -3.93040233      -0.65751327      -0.11716882       0.00000000
