10
Lattice="16.28999089631971 0.0 0.0 0.0 16.28999089631971 0.0 0.0 0.0 34.49183129400761" Properties=species:S:1:pos:R:3:initial_magmoms:R:1 pbc="T T T"
Si      -1.35325917       1.35757602       1.35580566       0.00000000
Si       1.35338949      -1.35690813       1.35953078       0.00000000
Si       1.35725022       1.35671265      -1.35639202       0.00000000
Si      -1.35755973      -1.35837423      -1.35587465       0.00000000
Si       0.01192428       2.70373275       2.69857340       0.00000000
Si      -0.00153126      -2.69744481       2.71657815       0.00000000
Si      -2.71329498       2.71425609       0.00120721       0.00000000
Si      -0.00030951       2.71451673      -2.71330143       0.00000000
Si      -2.71485882      -0.00076563      -2.71378431       0.00000000
Si       2.71494027      -0.00105885      -2.71395677       0.00000000
