10
Lattice="16.28999089631971 0.0 0.0 0.0 16.28999089631971 0.0 0.0 0.0 34.49183129400761" Properties=species:S:1:pos:R:3:initial_magmoms:R:1 pbc="T T T"
Si       1.47842406       1.33152831      -1.17903493       0.00000000
Si       0.75027246      -2.15889741       0.40583111       0.00000000
Si      -0.45818883       1.42443018       1.83586324       0.00000000
Si      -1.79237241      -0.51940665      -1.46859401       0.00000000
Si      -1.39400046      -2.57471595       1.55437525       0.00000000
Si      -2.76514605      -2.32464816      -0.37820314       0.00000000
Si      -0.66166722       3.50867052       0.75895868       0.00000000
Si      -3.28057794       1.33664337      -1.23142805       0.00000000
Si       1.47373416       3.51248238      -0.31159938       0.00000000
Si       1.15445179       0.92587473       3.53496629       0.00000000
