10
Lattice="16.28999089631971 0.0 0.0 0.0 16.28999089631971 0.0 0.0 0.0 34.49183129400761" Properties=species:S:1:pos:R:3:initial_magmoms:R:1 pbc="T T T"
Si       0.42015168       1.23551505      -1.96910526       0.00000000
Si      -2.09720718       0.51043086       0.97422232       0.00000000
Si       1.54215801      -0.20613366       1.78909229       0.00000000
Si      -0.41971185      -2.30290101      -0.57384092       0.00000000
Si      -1.49123547       0.67821786      -3.31428743       0.00000000
Si      -2.72253141      -2.37026016      -1.10746434       0.00000000
Si       0.28105137      -3.55516218       1.27443939       0.00000000
Si       2.28447702      -2.42098722       1.82958572       0.00000000
Si       0.27517068      -0.25488963       3.80255407       0.00000000
Si      -2.00362113      -0.02774187       3.27110363       0.00000000
