10
Lattice="16.28999089631971 0.0 0.0 0.0 16.28999089631971 0.0 0.0 0.0 34.49183129400761" Properties=species:S:1:pos:R:3:initial_magmoms:R:1 pbc="T T T"
Si      -1.41573132      -1.11141783       1.48191274       0.00000000
Si      -1.60440210       1.22696280      -1.36066901       0.00000000
Si       1.29684690       1.60472790       1.30372439       0.00000000
Si       0.36852867      -1.89001467      -1.84741801       0.00000000
Si      -2.76055227      -2.26823589      -0.05867064       0.00000000
Si       0.03425787      -2.38405779       2.84660695       0.00000000
Si      -3.11606523      -0.71503326      -1.93544121       0.00000000
Si      -0.94695399      -0.92092257      -3.51340888       0.00000000
Si      -2.50136208       2.95422408       0.10164748       0.00000000
Si      -2.68382637       0.34225290       2.87314843       0.00000000
