10
Lattice="16.28999089631971 0.0 0.0 0.0 16.28999089631971 0.0 0.0 0.0 34.49183129400761" Properties=species:S:1:pos:R:3:initial_magmoms:R:1 pbc="T T T"
Si       2.26341405       0.34288821      -0.56777035       0.00000000
Si      -0.95152238       0.47902374      -2.11759267       0.00000000
Si      -0.22510241      -2.18155680       0.94328313       0.00000000
Si      -0.54375110       1.85917770       1.61959934       0.00000000
Si       1.12195909      -1.02411972       2.78407870       0.00000000
Si       3.07662714      -0.30090888       1.54192369       0.00000000
Si      -2.53082159      -2.69351892       1.00957647       0.00000000
Si       2.94102918      -1.12912506      -2.27725545       0.00000000
Si      -3.21262325      -0.28246860      -2.24452268       0.00000000
Si       2.82028770       2.56275909      -1.23604996       0.00000000
