10
Lattice="16.28999089631971 0.0 0.0 0.0 16.28999089631971 0.0 0.0 0.0 34.49183129400761" Properties=species:S:1:pos:R:3:initial_magmoms:R:1 pbc="T T T"
Si      -0.70910370       1.32662502       1.75963625       0.00000000
Si       2.30943330       0.20707848       0.23964938       0.00000000
Si      -0.73531431       0.28808865      -2.24017671       0.00000000
Si      -0.55687365      -2.21987088       0.66827960       0.00000000
Si      -0.13193271       3.34062288       0.73146868       0.00000000
Si       2.68708437      -1.97605845       0.94431788       0.00000000
Si      -3.05627183      -0.00524538      -1.89963867       0.00000000
Si       0.60698169      -1.19941641      -3.50554474       0.00000000
Si       0.12074148      -3.69188415      -1.04120549       0.00000000
Si      -3.05014679       1.61759700       1.75722182       0.00000000
