10
Lattice="16.28999089631971 0.0 0.0 0.0 16.28999089631971 0.0 0.0 0.0 34.49183129400761" Properties=species:S:1:pos:R:3:initial_magmoms:R:1 pbc="T T T"
Si      -1.35498019       1.35669636      -1.35918586       0.00000000
Si      -1.35615307      -1.35780408       1.35763373       0.00000000
Si       1.35902733       1.35690813       1.35766822       0.00000000
Si       1.35889212      -1.35840681      -1.36039308       0.00000000
Si      -2.71327297       2.71497285       0.00162112       0.00000000
Si      -2.71314265      -2.71580364       0.00082780       0.00000000
Si      -2.71384312      -0.00003258       2.71519848       0.00000000
Si       0.00148504      -2.71484253       2.71468110       0.00000000
Si       0.00149760       2.71508688       2.71523297       0.00000000
Si       2.71586541      -0.00043983       2.71481907       0.00000000
