10
Lattice="16.28999089631971 0.0 0.0 0.0 16.28999089631971 0.0 0.0 0.0 34.49183129400761" Properties=species:S:1:pos:R:3:initial_magmoms:R:1 pbc="T T T"
Si      -0.42570494       0.69186888       2.14194392       0.00000000
Si       1.10447829       1.52927262      -1.32655657       0.00000000
Si      -1.62850690      -1.24349715      -1.26385039       0.00000000
Si       1.75096323      -0.25229952       2.02963845       0.00000000
Si       2.32813422       0.02430468      -2.66197755       0.00000000
Si       2.24731953       3.03858999       0.15310932       0.00000000
Si      -0.38113061      -2.68133400      -2.65621741       0.00000000
Si      -0.40432432       2.74957281      -2.65963211       0.00000000
Si      -1.90412900      -0.63965943       3.32097885       0.00000000
Si      -2.94165539      -2.66222583       0.11847951       0.00000000
