10
Lattice="16.28999089631971 0.0 0.0 0.0 16.28999089631971 0.0 0.0 0.0 34.49183129400761" Properties=species:S:1:pos:R:3:initial_magmoms:R:1 pbc="T T T"
Si      -1.26632107       0.95320935      -1.81982453       0.00000000
Si       1.43814636      -1.71668907      -0.91951824       0.00000000
Si       1.37588598       1.47958812       1.40147287       0.00000000
Si      -1.47566272      -1.39795893       1.58541791       0.00000000
Si      -1.40767722      -1.11615822      -3.07070598       0.00000000
Si       0.92664036      -1.46310264      -3.21908992       0.00000000
Si      -1.48006772      -3.43971495       0.10623490       0.00000000
Si       1.23276204       3.56581584       0.22671493       0.00000000
Si       0.86097537      -3.73068693       0.10864933       0.00000000
Si       3.59057664       0.30913533       1.40878514       0.00000000
