10
Lattice="16.28999089631971 0.0 0.0 0.0 16.28999089631971 0.0 0.0 0.0 34.49183129400761" Properties=species:S:1:pos:R:3:initial_magmoms:R:1 pbc="T T T"
Si       1.35345139      -1.35549090       1.36339387       0.00000000
Si      -1.36083983       1.36082073       1.36280751       0.00000000
Si       1.37210344       1.35773405      -1.37996031       0.00000000
Si      -1.38277080      -1.35233064      -1.37507971       0.00000000
Si      -0.08406943       2.59501559      -2.79157723       0.00000000
Si       2.70688975      -2.71388142       0.00206951       0.00000000
Si       2.71148353       2.71451903       0.00403555       0.00000000
Si       2.71029436       0.00249237       2.71971691       0.00000000
Si      -2.71838790      -2.71318095       0.00293181       0.00000000
Si      -0.00438038      -2.71296918       2.71978589       0.00000000
