10
Lattice="16.28999089631971 0.0 0.0 0.0 16.28999089631971 0.0 0.0 0.0 34.49183129400761" Properties=species:S:1:pos:R:3:initial_magmoms:R:1 pbc="T T T"
Si       1.50880261      -1.22030019       1.33307553       0.00000000
Si      -1.35247792      -1.35567009      -1.37156844       0.00000000
Si       1.36222519       1.35808101      -1.36836070       0.00000000
Si      -1.42128688       1.32481683       1.46014351       0.00000000
Si      -2.70376600      -2.71077003       0.00793313       0.00000000
Si      -2.70138766       2.71578735      -0.00369063       0.00000000
Si      -2.70705658       0.00032580      -2.72916768       0.00000000
Si       0.40432432      -2.74957281       2.65963211       0.00000000
Si       0.00799839      -2.71665072      -2.72909869       0.00000000
Si       0.00808636       2.71676475      -2.73047837       0.00000000
