10
Lattice="16.28999089631971 0.0 0.0 0.0 16.28999089631971 0.0 0.0 0.0 34.49183129400761" Properties=species:S:1:pos:R:3:initial_magmoms:R:1 pbc="T T T"
Si       1.84467960      -0.62019288      -1.22801336       0.00000000
Si      -0.24153183      -0.72479097       2.19561324       0.00000000
Si      -2.06775486      -0.45318780      -0.99805619       0.00000000
Si       0.22053402       2.33424297       0.32477526       0.00000000
Si      -2.02305510       0.80544276       2.50879924       0.00000000
Si      -3.34506353       0.90222165       0.45656863       0.00000000
Si       2.46031128       1.45349154      -2.27635866       0.00000000
Si      -0.50666787       2.61845460       2.53401279       0.00000000
Si       2.42292573       2.79401193      -0.31787689       0.00000000
Si       1.29572289      -2.73108366      -2.23496844       0.00000000
