10
Lattice="16.28999089631971 0.0 0.0 0.0 16.28999089631971 0.0 0.0 0.0 34.433804113860816" Properties=species:S:1:pos:R:3:initial_magmoms:R:1 pbc="T T T"
Si      -1.78350576      -1.60370163      -0.54119640       0.00000000
Si      -0.34507107       1.99963008      -1.43358337       0.00000000
Si      -1.20089880       1.50602679       1.62555193       0.00000000
Si       2.57624721      -0.06030558      -0.07076151       0.00000000
Si      -1.07976636      -3.70108800       0.23690470       0.00000000
Si       3.04137558      -0.78304401      -2.36484612       0.00000000
Si       3.23164278       2.30518161       0.40879835       0.00000000
Si      -2.67789681      -1.23470055      -2.70894332       0.00000000
Si       0.25521543       3.05870881       2.68280805       0.00000000
Si      -3.78629189      -1.33894026       0.74900453       0.00000000
