10
Lattice="16.28999089631971 0.0 0.0 0.0 16.28999089631971 0.0 0.0 0.0 34.433804113860816" Properties=species:S:1:pos:R:3:initial_magmoms:R:1 pbc="T T T"
Si       0.96273900       1.70111583       1.31951241       0.00000000
Si      -1.64876303      -0.96858711       1.41717707       0.00000000
Si      -1.71260354       0.78328836      -1.59445819       0.00000000
Si       1.88577927      -1.78756686       0.01242365       0.00000000
Si      -0.28491210      -2.27696733       2.75766859       0.00000000
Si      -2.45132572      -2.68253946       0.02112302       0.00000000
Si       1.31919678       3.42004219      -0.31744542       0.00000000
Si       2.43103815       0.44457039       2.72852036       0.00000000
Si      -2.72309830      -1.48190130      -2.23785418       0.00000000
Si       1.07108379      -3.53258424       1.37877302       0.00000000
