10
Lattice="16.28999089631971 0.0 0.0 0.0 16.28999089631971 0.0 0.0 0.0 34.433804113860816" Properties=species:S:1:pos:R:3:initial_magmoms:R:1 pbc="T T T"
Si       1.45611423       1.55268202       1.05725611       0.00000000
Si      -0.75875888      -1.19164608       2.05814406       0.00000000
Si       1.20089880      -1.50602679      -1.62555193       0.00000000
Si       0.85582773       0.49360329      -3.05913530       0.00000000
Si      -0.44127981       3.13832456       1.03260149       0.00000000
Si      -2.57162804       2.14131954       1.38461847       0.00000000
Si       1.30917843       2.72733600      -2.29656385       0.00000000
Si       2.86212042       2.43989081      -0.57638777       0.00000000
Si      -0.58260696      -3.10972842      -2.16674833       0.00000000
Si      -3.66714683       1.09696860      -0.71656786       0.00000000
