10
Lattice="16.28999089631971 0.0 0.0 0.0 16.28999089631971 0.0 0.0 0.0 34.433804113860816" Properties=species:S:1:pos:R:3:initial_magmoms:R:1 pbc="T T T"
Si       1.30161987      -1.41618454      -1.35427194       0.00000000
Si       1.36537893       1.34551033       1.36493265       0.00000000
Si      -1.34855136      -1.36540861       1.36551803       0.00000000
Si      -1.07440695       1.46009093      -1.58131136       0.00000000
Si      -1.49288076      -0.41092864      -3.16436993       0.00000000
Si       2.44941327       0.24821104      -2.58448639       0.00000000
Si       0.94718205       2.19611385      -2.73766599       0.00000000
Si      -0.29294307      -2.60470294      -2.71782428       0.00000000
Si      -2.67146226       2.69220951      -0.01756814       0.00000000
Si      -2.70669753      -2.71537720       0.00586752       0.00000000
