10
Lattice="16.28999089631971 0.0 0.0 0.0 16.28999089631971 0.0 0.0 0.0 34.433804113860816" Properties=species:S:1:pos:R:3:initial_magmoms:R:1 pbc="T T T"
Si      -1.35762489      -1.33514210      -1.36619638       0.00000000
Si      -1.30531770       1.32824750       1.45720497       0.00000000
Si       1.36884870       1.37231195      -1.35596953       0.00000000
Si       1.07123040      -1.64095427       1.35645160       0.00000000
Si       2.22726654       0.25614233       2.64221057       0.00000000
Si       0.50393115       2.18384717       2.86885399       0.00000000
Si      -0.85691916      -3.48146363       1.18380041       0.00000000
Si      -2.71096551      -2.68253687      -0.00048207       0.00000000
Si       0.00669519      -2.70070022      -2.71565791       0.00000000
Si      -2.70500337       0.01248303      -2.72006544       0.00000000
