10
Lattice="16.28999089631971 0.0 0.0 0.0 16.28999089631971 0.0 0.0 0.0 34.433804113860816" Properties=species:S:1:pos:R:3:initial_magmoms:R:1 pbc="T T T"
Si      -0.71231283      -0.96649710       2.00318767       0.00000000
Si       1.81701918      -1.05547308      -1.05133349       0.00000000
Si      -2.02233834      -0.15860433      -1.29350657       0.00000000
Si       0.79374654       2.26499418       0.24048582       0.00000000
Si      -2.39153490       2.20783257      -1.08662816       0.00000000
Si      -0.19658772       2.92061781      -1.79114419       0.00000000
Si      -2.02439088       0.86094279       2.79182553       0.00000000
Si       3.16671084       1.88077824       0.52711297       0.00000000
Si       3.71884410      -0.38563806       0.15495221       0.00000000
Si      -2.41166934      -2.53176641       1.69008092       0.00000000
