10
Lattice="16.28999089631971 0.0 0.0 0.0 16.28999089631971 0.0 0.0 0.0 34.433804113860816" Properties=species:S:1:pos:R:3:initial_magmoms:R:1 pbc="T T T"
Si       1.28811546      -1.40146128       1.34208237       0.00000000
Si       1.37749869       1.18146483      -1.54577707       0.00000000
Si      -1.45821564       1.32740694       1.34315670       0.00000000
Si      -1.07300601      -1.70492769      -1.30757141       0.00000000
Si      -1.12889700      -0.28885428      -3.38874416       0.00000000
Si       2.51162478       2.61026073       0.02477858       0.00000000
Si       2.61685818      -0.04315221       2.72165628       0.00000000
Si      -0.10529856       2.68592778       2.72200062       0.00000000
Si      -0.09752823      -2.75323317       2.71841951       0.00000000
Si      -2.86798156       2.65026897      -0.10952366       0.00000000
