10
Lattice="16.28999089631971 0.0 0.0 0.0 16.28999089631971 0.0 0.0 0.0 34.433804113860816" Properties=species:S:1:pos:R:3:initial_magmoms:R:1 pbc="T T T"
Si      -1.35573525      -1.35547461      -1.35924074       0.00000000
Si       1.35736425       1.35645201      -1.35776009       0.00000000
Si       1.35752715      -1.35775521       1.35707141       0.00000000
Si      -1.35819504       1.35790182       1.35765679       0.00000000
Si      -0.00117288      -2.71371852       2.71410839       0.00000000
Si       2.71453302      -0.00019548       2.71369518       0.00000000
Si      -2.71427238       0.00052128       2.71434943       0.00000000
Si       2.71485882       2.71467963      -0.00006887       0.00000000
Si      -2.71505430      -2.71518462       0.00000000       0.00000000
Si      -2.71570590       2.71526607      -0.00006887       0.00000000
