10
Lattice="16.28999089631971 0.0 0.0 0.0 16.28999089631971 0.0 0.0 0.0 34.433804113860816" Properties=species:S:1:pos:R:3:initial_magmoms:R:1 pbc="T T T"
Si      -1.02988638      -1.70405522      -1.29722543       0.00000000
Si       1.80046854       0.99390177      -1.25600814       0.00000000
Si       0.56133711      -1.77573122       1.70082427       0.00000000
Si      -1.71584199       1.87942617       0.10006469       0.00000000
Si      -2.83552537      -1.14782761       1.46037288       0.00000000
Si      -2.33203567      -0.32616490      -2.70797917       0.00000000
Si       0.41560677       2.40670089      -2.68559719       0.00000000
Si       0.06472017       1.61784135       3.35330345       0.00000000
Si      -2.36153361      -3.19302638       0.01222401       0.00000000
Si      -3.60069534       1.16152587      -1.31740365       0.00000000
