10
Lattice="16.28999089631971 0.0 0.0 0.0 16.28999089631971 0.0 0.0 0.0 34.433804113860816" Properties=species:S:1:pos:R:3:initial_magmoms:R:1 pbc="T T T"
Si       0.19922670       2.33455248      -0.13195041       0.00000000
Si       0.99033426      -0.65562363       2.03163001       0.00000000
Si      -2.19494718      -0.71278524       0.70451603       0.00000000
Si       1.02597678      -0.91272870      -2.05363323       0.00000000
Si       0.19658772      -2.92061781       1.79114419       0.00000000
Si      -1.82575062      -3.07922214       0.49763762       0.00000000
Si       1.90505034       1.25356437      -2.83765695       0.00000000
Si       0.14274927       2.87518500      -2.40337757       0.00000000
Si       2.43822204       2.91279861       0.16493801       0.00000000
Si      -3.82357251       0.56143485      -0.43052609       0.00000000
