10
Lattice="16.28999089631971 0.0 0.0 0.0 16.28999089631971 0.0 0.0 0.0 34.433804113860816" Properties=species:S:1:pos:R:3:initial_magmoms:R:1 pbc="T T T"
Si       0.19365552      -0.20178423      -2.37768994       0.00000000
Si      -1.67624100      -1.07443953       1.40782687       0.00000000
Si       0.25409142       1.98778725       1.39126420       0.00000000
Si      -0.58415940      -2.49210936      -0.10522976       0.00000000
Si      -0.54211491       0.35435637       2.97838252       0.00000000
Si      -1.77904719       3.15174033       0.12186130       0.00000000
Si       0.49322862       2.02870773      -3.05524428       0.00000000
Si      -1.72742418      -1.26322434      -3.19032817       0.00000000
Si       2.21884461      -1.29446856      -2.94295558       0.00000000
Si      -2.16764514      -2.98483299      -1.66311923       0.00000000
