10
Lattice="16.28999089631971 0.0 0.0 0.0 16.28999089631971 0.0 0.0 0.0 34.433804113860816" Properties=species:S:1:pos:R:3:initial_magmoms:R:1 pbc="T T T"
Si      -1.35607734      -1.35738054       1.35669264       0.00000000
Si      -1.35751086       1.35736425      -1.35772565       0.00000000
Si       1.35819504      -1.35790182      -1.35765679       0.00000000
Si       1.35917244       1.35780408       1.35796669       0.00000000
Si      -2.71459818       2.71454931      -0.00044764       0.00000000
Si      -0.00205254       2.71399545      -2.71527914       0.00000000
Si      -2.71489140      -0.00034209      -2.71445273       0.00000000
Si      -2.71487511      -2.71523349      -0.00003443       0.00000000
Si       0.00245979      -2.71337643      -2.71689753       0.00000000
Si       2.71617831       2.71472850      -0.00055094       0.00000000
