10
Lattice="16.28999089631971 0.0 0.0 0.0 16.28999089631971 0.0 0.0 0.0 34.433804113860816" Properties=species:S:1:pos:R:3:initial_magmoms:R:1 pbc="T T T"
Si      -1.35545832      -1.35663120       1.35755349       0.00000000
Si      -1.35713619       1.36028016      -1.35472991       0.00000000
Si       1.35936792       1.35817875       1.35741575       0.00000000
Si       1.36207206      -1.35736425      -1.35958508       0.00000000
Si      -2.71762812       0.00671148      -2.68567983       0.00000000
Si      -0.01153332      -2.70549207      -2.71979342       0.00000000
Si      -2.71384884       2.71298547       0.00141179       0.00000000
Si      -2.71283886      -2.71433754       0.00082641       0.00000000
Si      -2.71254564       0.00055386       2.71483150       0.00000000
Si       0.00205254      -2.71399545       2.71527914       0.00000000
