10
Lattice="16.28999089631971 0.0 0.0 0.0 16.28999089631971 0.0 0.0 0.0 34.433804113860816" Properties=species:S:1:pos:R:3:initial_magmoms:R:1 pbc="T T T"
Si       1.79499510       0.80637129      -1.45434696       0.00000000
Si      -0.95452884      -1.83453093      -1.39667031       0.00000000
Si       1.44476010       0.25233210       2.03600311       0.00000000
Si      -1.36438524      -1.79642862       1.53165090       0.00000000
Si      -2.23790391       1.85376942       0.44533264       0.00000000
Si       2.88230373      -1.53354060       1.50537789       0.00000000
Si       0.42217164       2.19396978      -2.82185182       0.00000000
Si      -2.29449537      -0.53364411      -2.83056358       0.00000000
Si      -2.86989075      -2.52754011      -0.15787908       0.00000000
Si       2.55124206       2.38726692       1.75671037       0.00000000
