10
Lattice="16.28999089631971 0.0 0.0 0.0 16.28999089631971 0.0 0.0 0.0 34.433804113860816" Properties=species:S:1:pos:R:3:initial_magmoms:R:1 pbc="T T T"
Si       1.43754363      -1.78587270      -0.53062522       0.00000000
Si      -0.44230608      -0.55786734       2.29635725       0.00000000
Si       1.10648196       2.13493482      -0.27929274       0.00000000
Si      -1.44476010      -0.25233210      -2.03600311       0.00000000
Si      -1.80344961       1.39056327       2.32538496       0.00000000
Si       2.18347902       1.49258754      -2.24377680       0.00000000
Si      -2.80914534      -2.04876072      -0.50435221       0.00000000
Si       3.45134601      -0.64886328       0.24957635       0.00000000
Si       0.35023500       0.55403919      -3.49035007       0.00000000
Si       2.05289838       2.80632717       1.76283959       0.00000000
