10
Lattice="16.28999089631971 0.0 0.0 0.0 16.28999089631971 0.0 0.0 0.0 34.433804113860816" Properties=species:S:1:pos:R:3:initial_magmoms:R:1 pbc="T T T"
Si      -1.33996653       1.30088682      -1.43389327       0.00000000
Si      -1.91536191      -0.69300918       1.23879123       0.00000000
Si       1.36041048      -1.42698771      -1.41058157       0.00000000
Si       0.95452884       1.83453093       1.39667031       0.00000000
Si      -0.40985640       0.03810231       2.92832121       0.00000000
Si      -2.59022403       2.71469592      -0.01577069       0.00000000
Si      -2.65530258      -2.71008585       0.07771714       0.00000000
Si       2.74952394       2.64090222      -0.05767665       0.00000000
Si       0.00071676       2.65210974      -2.79378826       0.00000000
Si      -2.71164969      -0.05994720      -2.79309958       0.00000000
