10
Lattice="16.28999089631971 0.0 0.0 0.0 16.28999089631971 0.0 0.0 0.0 34.433804113860816" Properties=species:S:1:pos:R:3:initial_magmoms:R:1 pbc="T T T"
Si       1.04809860       1.49286447       1.45531111       0.00000000
Si       0.94203441      -2.08655352       0.62073853       0.00000000
Si      -1.99401003      -0.80459568       1.02874491       0.00000000
Si       0.12310353       0.13908402      -2.38571302       0.00000000
Si      -3.08301282      -0.95606010      -1.05133349       0.00000000
Si      -1.49661117      -1.53803664      -2.69768346       0.00000000
Si      -0.96620877      -2.84107374       1.86627879       0.00000000
Si       3.30900399       0.86542254       1.22945966       0.00000000
Si       2.95336071      -1.44125775       1.62964956       0.00000000
Si       0.80081640       0.59271165       3.74643442       0.00000000
