10
Lattice="16.28999089631971 0.0 0.0 0.0 16.28999089631971 0.0 0.0 0.0 34.433804113860816" Properties=species:S:1:pos:R:3:initial_magmoms:R:1 pbc="T T T"
Si       0.45672273      -2.21644998      -0.46358256       0.00000000
Si       1.69935651       1.56526930       0.31310676       0.00000000
Si      -1.14798888       0.91501681      -1.84606614       0.00000000
Si      -1.22530122       0.08834067       2.10425095       0.00000000
Si       0.38727846       3.39270920       1.10174461       0.00000000
Si      -3.09261252       1.65423877      -0.76081533       0.00000000
Si       2.16114543      -2.69433342       1.17298819       0.00000000
Si      -1.73421711      -3.15817488      -0.63609602       0.00000000
Si      -3.40537074       0.63557064       1.37280767       0.00000000
Si      -0.77195052       2.32207338       2.86682240       0.00000000
