10
Lattice="16.28999089631971 0.0 0.0 0.0 16.28999089631971 0.0 0.0 0.0 34.433804113860816" Properties=species:S:1:pos:R:3:initial_magmoms:R:1 pbc="T T T"
Si      -1.84433751      -1.41811033      -0.43386617       0.00000000
Si       1.71297495      -1.53205888       0.61543572       0.00000000
Si      -0.42582060       1.40824444       1.88005232       0.00000000
Si       1.09169064       0.99829030      -1.93989831       0.00000000
Si       2.77552278      -0.67098577      -1.42194474       0.00000000
Si       1.83244581       2.06945554       2.22180802       0.00000000
Si      -3.59771166       0.12529779      -0.26910033       0.00000000
Si       0.66676599      -3.61082578       0.06032806       0.00000000
Si      -1.56986730      -3.34946902       0.93484387       0.00000000
Si      -1.61901423      -2.42711293      -2.55202838       0.00000000
