10
Lattice="16.28999089631971 0.0 0.0 0.0 16.28999089631971 0.0 0.0 0.0 34.433804113860816" Properties=species:S:1:pos:R:3:initial_magmoms:R:1 pbc="T T T"
Si       1.84060710      -0.18649769      -1.44215739       0.00000000
Si      -1.90182492      -0.66983503      -1.20628570       0.00000000
Si       0.74328012      -1.11464651       1.94213650       0.00000000
Si      -0.55213326       2.26641630       0.37216076       0.00000000
Si       0.79068402       1.11088515      -3.05565748       0.00000000
Si      -1.68663402      -2.95425896      -0.50159750       0.00000000
Si      -0.13276350       2.21112804       2.72075412       0.00000000
Si       0.57427137      -3.58170089      -0.72744895       0.00000000
Si       1.62513927       0.65509095       3.27248727       0.00000000
Si       1.94238702      -2.97841703       1.11730870       0.00000000
