10
Lattice="16.28999089631971 0.0 0.0 0.0 16.28999089631971 0.0 0.0 0.0 34.433804113860816" Properties=species:S:1:pos:R:3:initial_magmoms:R:1 pbc="T T T"
Si      -1.35754344      -1.33918461       1.37074164       0.00000000
Si      -1.35395964       1.35620766      -1.35758792       0.00000000
Si       1.36511829       1.35045729       1.35593510       0.00000000
Si       1.36200690      -1.35671265      -1.35617613       0.00000000
Si       2.58883938      -0.14682177       2.71731074       0.00000000
Si      -2.70791928      -2.71498914       0.00544054       0.00000000
Si      -2.70959715       2.71552671       0.00196273       0.00000000
Si      -2.71096551      -0.00135207      -2.71421169       0.00000000
Si       0.00340461       2.71420722      -2.71393622       0.00000000
Si       0.00358380      -2.71601541      -2.71431499       0.00000000
