10
Lattice="16.28999089631971 0.0 0.0 0.0 16.28999089631971 0.0 0.0 0.0 34.433804113860816" Properties=species:S:1:pos:R:3:initial_magmoms:R:1 pbc="T T T"
Si       1.32424668       1.36438524      -1.33272670       0.00000000
Si      -1.49058387      -1.44267498      -1.17839430       0.00000000
Si      -0.34549461       1.68446745       1.65413201       0.00000000
Si       1.54640970      -1.14710922       1.49466897       0.00000000
Si       0.38209824       0.06631659       3.19332391       0.00000000
Si       2.61363276      -0.04178385      -2.68976368       0.00000000
Si      -0.10487502       2.66028732      -2.69010802       0.00000000
Si      -0.10902897      -2.73142575      -2.67495713       0.00000000
Si      -2.82191670      -0.04351059      -2.65849777       0.00000000
Si       2.20846788       3.21396813      -0.05740118       0.00000000
