10
Lattice="16.28999089631971 0.0 0.0 0.0 16.28999089631971 0.0 0.0 0.0 34.433804113860816" Properties=species:S:1:pos:R:3:initial_magmoms:R:1 pbc="T T T"
Si       2.10466800       0.94472226       0.44471283       0.00000000
Si       0.39908871      -2.27206404       0.60758481       0.00000000
Si      -1.16431146       1.21342581       1.69865494       0.00000000
Si      -1.54640970       1.14710922      -1.49466897       0.00000000
Si       1.45627713      -2.20398813      -1.52641696       0.00000000
Si      -1.89190431       2.83157667       0.15946304       0.00000000
Si       2.29094415      -0.39195369      -2.82305701       0.00000000
Si      -0.22216302       2.51149446      -2.82739567       0.00000000
Si       2.68105707       0.81352260       2.72633240       0.00000000
Si       2.25219024       3.21561342       0.09217935       0.00000000
