10
Lattice="16.28999089631971 0.0 0.0 0.0 16.28999089631971 0.0 0.0 0.0 34.433804113860816" Properties=species:S:1:pos:R:3:initial_magmoms:R:1 pbc="T T T"
Si       0.02712285      -2.18517318      -0.90664257       0.00000000
Si      -1.55804076       1.16884008      -1.37036287       0.00000000
Si      -0.64716912      -0.70757244       2.19016333       0.00000000
Si       1.87072731       1.47683511       0.28476772       0.00000000
Si      -1.95576111      -3.02441769       0.26844609       0.00000000
Si      -0.26427267       1.55202975      -3.32644507       0.00000000
Si       1.18491831      -0.32107590      -3.53910836       0.00000000
Si       1.69129296       2.08977894       2.61562766       0.00000000
Si       1.15795836      -0.09532908       3.62174954       0.00000000
Si      -2.12359698       3.16783485      -0.24289619       0.00000000
