10
Lattice="16.28999089631971 0.0 0.0 0.0 16.28999089631971 0.0 0.0 0.0 34.433804113860816" Properties=species:S:1:pos:R:3:initial_magmoms:R:1 pbc="T T T"
Si       1.86781140       0.86908779      -1.20855833       0.00000000
Si      -0.88422120      -1.84958289      -1.27532552       0.00000000
Si      -1.80802710       1.74895956      -0.00161839       0.00000000
Si       1.59013206      -1.14546393       1.64424950       0.00000000
Si      -0.54016011      -0.39249126       2.49173476       0.00000000
Si      -2.55396249      -1.52950068       1.71153319       0.00000000
Si       0.42691203       2.19028824      -2.61438804       0.00000000
Si      -2.31334290      -0.55368081      -2.63270683       0.00000000
Si      -0.76075929       3.60157239      -1.10604884       0.00000000
Si      -2.20846788      -3.21396813       0.05740118       0.00000000
