10
Lattice="16.28999089631971 0.0 0.0 0.0 16.28999089631971 0.0 0.0 0.0 34.433804113860816" Properties=species:S:1:pos:R:3:initial_magmoms:R:1 pbc="T T T"
Si      -1.07699706       0.64234728       1.96448406       0.00000000
Si       1.04726781       1.85261283      -1.10443045       0.00000000
Si      -1.83324402      -0.93854835      -1.24657327       0.00000000
Si       1.80802710      -1.74895956       0.00161839       0.00000000
Si       2.23493913       0.44132868      -2.61276965       0.00000000
Si      -2.18347902      -1.49258754       2.24377680       0.00000000
Si       1.26786699      -2.14145082       2.49335315       0.00000000
Si      -0.50531580      -2.30264037      -2.63108844       0.00000000
Si      -2.41636086       2.49745248       1.39425994       0.00000000
Si      -0.74593539      -3.27846024       1.71315158       0.00000000
