10
Lattice="16.28999089631971 0.0 0.0 0.0 16.28999089631971 0.0 0.0 0.0 34.433804113860816" Properties=species:S:1:pos:R:3:initial_magmoms:R:1 pbc="T T T"
Si       0.61906887      -1.53274239      -1.63181889       0.00000000
Si       2.01132630       0.64529577       1.00891102       0.00000000
Si      -0.94203441       2.08655352      -0.62073853       0.00000000
Si      -1.90824318      -0.75452022       1.24554026       0.00000000
Si      -2.93604444       1.28195784       0.40800637       0.00000000
Si       0.31548843      -3.53725947      -0.44498830       0.00000000
Si       0.10606419       3.57941799       0.83457258       0.00000000
Si       1.50403941       0.98135847       3.26601371       0.00000000
Si      -1.07750205      -1.39991373      -3.34744970       0.00000000
Si       2.99687130      -1.49446089      -1.81359504       0.00000000
