10
Lattice="16.28999089631971 0.0 0.0 0.0 16.28999089631971 0.0 0.0 0.0 34.433804113860816" Properties=species:S:1:pos:R:3:initial_magmoms:R:1 pbc="T T T"
Si       0.51857586      -1.16528886      -1.99654195       0.00000000
Si       1.81483632       1.03611472       1.17739572       0.00000000
Si      -1.68383214       1.66927607      -0.51795357       0.00000000
Si      -1.06254783      -0.86107311       2.03738046       0.00000000
Si      -2.77552278       0.67098577       1.42194474       0.00000000
Si       1.95027138      -2.67405237      -0.63895403       0.00000000
Si       0.52621587       2.94820397       1.80853327       0.00000000
Si      -0.43311852       3.65431031      -0.36307023       0.00000000
Si      -2.10875679      -2.93984001       1.48227279       0.00000000
Si       1.63000998       0.39059431      -3.55470689       0.00000000
