10
Lattice="16.28999089631971 0.0 0.0 0.0 16.28999089631971 0.0 0.0 0.0 34.433804113860816" Properties=species:S:1:pos:R:3:initial_magmoms:R:1 pbc="T T T"
Si      -0.94641642      -0.67139235      -2.04213233       0.00000000
Si       1.04620896       2.07876690       0.55510767       0.00000000
Si      -2.23663329       0.26135676       0.87451581       0.00000000
Si       1.55437551      -1.81835496       0.34643870       0.00000000
Si      -2.51110350       2.19271545      -0.49419423       0.00000000
Si      -2.28578022       1.18371285      -2.61235644       0.00000000
Si      -0.66676599       3.61082578      -0.06032806       0.00000000
Si       3.61315458      -0.65423898       0.38266308       0.00000000
Si      -2.05289838      -2.80632717      -1.76283959       0.00000000
Si       2.10875679       2.93984001      -1.48227279       0.00000000
