10
Lattice="16.28999089631971 0.0 0.0 0.0 16.28999089631971 0.0 0.0 0.0 34.433804113860816" Properties=species:S:1:pos:R:3:initial_magmoms:R:1 pbc="T T T"
Si      -1.35804528       1.35619137      -1.35751905       0.00000000
Si       1.35900358       1.35599589       1.35789782       0.00000000
Si      -1.35622080      -1.35910728       1.35776009       0.00000000
Si       1.35956233      -1.36021500      -1.36385488       0.00000000
Si      -2.71247733       2.71116099      -0.00013774       0.00000000
Si       0.00165675       2.71370223       2.71459046       0.00000000
Si      -2.71358505      -0.00158013       2.71486593       0.00000000
Si       2.71605832       2.71353933       0.00110188       0.00000000
Si      -2.71420407      -2.71578735       0.00065424       0.00000000
Si       2.71607461      -0.00135207       2.71552018       0.00000000
