10
Lattice="16.28999089631971 0.0 0.0 0.0 16.28999089631971 0.0 0.0 0.0 34.433804113860816" Properties=species:S:1:pos:R:3:initial_magmoms:R:1 pbc="T T T"
Si      -1.35659862      -1.35512784      -1.35703698       0.00000000
Si       1.35900467      -1.35463466       1.35851763       0.00000000
Si      -1.35343836       1.35781385       1.36137564       0.00000000
Si       1.35870973       1.35985010      -1.35693368       0.00000000
Si       2.70034347      -0.00317329       2.72343996       0.00000000
Si       2.71689085      -2.70985520       0.00110188       0.00000000
Si       0.00102627      -2.71246160      -2.71455603       0.00000000
Si      -2.71391400       0.00297292      -2.71421169       0.00000000
Si      -2.71420722      -2.71428608      -0.00003443       0.00000000
Si       2.71342108       2.71755644       0.00041321       0.00000000
