10
Lattice="16.28999089631971 0.0 0.0 0.0 16.28999089631971 0.0 0.0 0.0 34.433804113860816" Properties=species:S:1:pos:R:3:initial_magmoms:R:1 pbc="T T T"
Si       1.72157674      -1.32359671      -0.81191512       0.00000000
Si      -1.60539579      -1.06794145       1.34150732       0.00000000
Si       0.69822198       1.68034608       1.54494235       0.00000000
Si      -0.84305637       0.23183928      -2.23103628       0.00000000
Si       0.32970960      -3.23210609      -0.75640780       0.00000000
Si      -2.89401624       0.84414780       1.97264487       0.00000000
Si      -0.29343177      -2.59554176       2.65784352       0.00000000
Si      -1.27247706       2.40718959       2.56786794       0.00000000
Si       1.67757745       0.43769601       3.37778590       0.00000000
Si       0.95640677       0.98575677      -3.58969165       0.00000000
