10
Lattice="16.28999089631971 0.0 0.0 0.0 16.28999089631971 0.0 0.0 0.0 34.433804113860816" Properties=species:S:1:pos:R:3:initial_magmoms:R:1 pbc="T T T"
Si       1.32137964       1.27493685      -1.46068765       0.00000000
Si      -1.90296522      -0.75214188      -1.25873327       0.00000000
Si       1.32914526      -1.36622601       1.49445892       0.00000000
Si      -1.36754550       1.37042883       1.49601533       0.00000000
Si      -0.30745746       1.71576054      -3.21082115       0.00000000
Si       2.64112443       2.68218108       0.05448808       0.00000000
Si      -2.76011244      -2.63048476       0.17337430       0.00000000
Si       2.63389167      -2.84182634       0.04386180       0.00000000
Si      -1.16908443      -1.43161407      -3.44190654       0.00000000
Si      -2.69202024       2.84086197      -0.01101882       0.00000000
