10
Lattice="16.28999089631971 0.0 0.0 0.0 16.28999089631971 0.0 0.0 0.0 34.433804113860816" Properties=species:S:1:pos:R:3:initial_magmoms:R:1 pbc="T T T"
Si      -1.35798327      -1.35668007      -1.35710585       0.00000000
Si      -1.35736425       1.35752715       1.35710585       0.00000000
Si       1.35763459      -1.35741312       1.35769122       0.00000000
Si       1.35622080       1.35910728      -1.35776009       0.00000000
Si       2.71234594       0.00029322       2.71503810       0.00000000
Si       0.00241092       2.71446786       2.71445273       0.00000000
Si      -2.71498914      -2.71429030       0.00041321       0.00000000
Si      -2.71412577       0.00197109       2.71524471       0.00000000
Si      -2.71485882       2.71508688      -0.00020660       0.00000000
Si       2.71522439       2.71510317       0.00013774       0.00000000
