10
Lattice="16.28999089631971 0.0 0.0 0.0 16.28999089631971 0.0 0.0 0.0 34.433804113860816" Properties=species:S:1:pos:R:3:initial_magmoms:R:1 pbc="T T T"
Si       1.35678768      -1.35728280       1.35359360       0.00000000
Si       1.35546663       1.35834165      -1.35762235       0.00000000
Si      -1.35977517      -1.35694071      -1.35734688       0.00000000
Si      -1.35809730       1.35767376       1.35955065       0.00000000
Si       0.00335574      -2.69983944       2.70973530       0.00000000
Si       2.70993502      -2.71417464       0.00058537       0.00000000
Si      -2.71342530      -0.00532683       2.71290321       0.00000000
Si       2.71281347       0.00063531      -2.71431499       0.00000000
Si      -0.00809613       2.71280628       2.71479707       0.00000000
Si       2.71239156       2.71559187      -0.00010330       0.00000000
