10
Lattice="16.28999089631971 0.0 0.0 0.0 16.28999089631971 0.0 0.0 0.0 34.433804113860816" Properties=species:S:1:pos:R:3:initial_magmoms:R:1 pbc="T T T"
Si      -0.32980734       2.32140645       0.15288618       0.00000000
Si       2.01283217      -0.53304138       1.14668075       0.00000000
Si       0.12165372      -0.33985827      -2.36040416       0.00000000
Si      -2.02323429      -1.12808250       0.74449369       0.00000000
Si      -2.11768371      -1.29591837      -2.35461927       0.00000000
Si       1.20636477      -0.91797408       3.33367617       0.00000000
Si       2.85424325       1.04448222      -2.10690235       0.00000000
Si      -1.30605075      -3.43025046       0.56058264       0.00000000
Si       2.85069203      -2.53856844       0.21249112       0.00000000
Si      -0.64824426       3.21077529      -2.03073473       0.00000000
