10
Lattice="16.28999089631971 0.0 0.0 0.0 16.28999089631971 0.0 0.0 0.0 34.433804113860816" Properties=species:S:1:pos:R:3:initial_magmoms:R:1 pbc="T T T"
Si       1.50550551       0.73111149       1.68952998       0.00000000
Si       1.91536191       0.69300918      -1.23879123       0.00000000
Si      -0.73994067      -2.01707667      -1.16107409       0.00000000
Si      -1.87580979       1.58037435      -0.17902145       0.00000000
Si       0.57539538       1.99389600      -2.67268450       0.00000000
Si      -2.15629590      -0.74958435      -2.66645198       0.00000000
Si      -0.67486212       3.40770510      -1.25456192       0.00000000
Si       2.86989075       2.52754011       0.15787908       0.00000000
Si      -3.62127419       0.51632784      -1.34450307       0.00000000
Si       0.81042750      -0.16646751       3.85693255       0.00000000
