10
Lattice="16.28999089631971 0.0 0.0 0.0 16.28999089631971 0.0 0.0 0.0 34.433804113860816" Properties=species:S:1:pos:R:3:initial_magmoms:R:1 pbc="T T T"
Si       1.35000117       1.35513252       1.35524642       0.00000000
Si      -1.35532800      -1.36300059       1.35335256       0.00000000
Si      -1.35998694       1.35689184      -1.35820773       0.00000000
Si       1.35809730      -1.35767376      -1.35955065       0.00000000
Si       2.60206686      -0.11442096       2.68948821       0.00000000
Si      -2.64471408       0.04316850       2.71038954       0.00000000
Si       2.71488498      -2.71495656      -0.00595705       0.00000000
Si       2.71356393       0.00066789      -2.71717300       0.00000000
Si      -0.00167787      -2.71461447      -2.71689753       0.00000000
Si      -0.00138465       2.71531494      -2.71638102       0.00000000
