10
Lattice="16.28999089631971 0.0 0.0 0.0 16.28999089631971 0.0 0.0 0.0 34.433804113860816" Properties=species:S:1:pos:R:3:initial_magmoms:R:1 pbc="T T T"
Si       0.58083624       2.24360541      -0.39516256       0.00000000
Si       1.19822724      -0.92129724      -1.81139128       0.00000000
Si      -2.24847612      -0.69294402      -0.34420050       0.00000000
Si       0.93056625      -0.37287810       2.18727089       0.00000000
Si       2.99196868       2.10968532      -0.38493571       0.00000000
Si       3.10929415       0.44180109      -1.96152275       0.00000000
Si      -2.65152330      -2.38433472       1.22976957       0.00000000
Si      -0.92263302      -0.08164548       3.68610636       0.00000000
Si      -0.55535868       2.94715422      -2.40169031       0.00000000
Si      -3.95363187       0.75264687       0.29757710       0.00000000
