10
Lattice="16.28999089631971 0.0 0.0 0.0 16.28999089631971 0.0 0.0 0.0 34.433804113860816" Properties=species:S:1:pos:R:3:initial_magmoms:R:1 pbc="T T T"
Si      -2.32850889      -0.41472711       0.01146646       0.00000000
Si       0.09892917       2.07554148       1.16379436       0.00000000
Si       1.18068291      -1.86639417       1.00381482       0.00000000
Si       1.00027116       0.20647575      -2.20848213       0.00000000
Si      -2.48777622      -1.25960796      -2.17081153       0.00000000
Si      -0.50130846      -3.55791519       0.55001146       0.00000000
Si       1.26848601       3.40235613      -0.40039650       0.00000000
Si       2.44183420       2.01940614      -1.91021635       0.00000000
Si      -2.61770526      -2.33789193       1.37112041       0.00000000
Si       2.28907799      -1.76215446      -2.45413302       0.00000000
