10
Lattice="16.28999089631971 0.0 0.0 0.0 16.28999089631971 0.0 0.0 0.0 34.433804113860816" Properties=species:S:1:pos:R:3:initial_magmoms:R:1 pbc="T T T"
Si      -1.83104650      -1.35710361       0.59777117       0.00000000
Si       1.62862533      -1.27422009       1.13504212       0.00000000
Si      -0.83785986       2.00552706       0.93418963       0.00000000
Si       0.59453613       0.11798847      -2.32703778       0.00000000
Si      -1.71941602      -2.95549470      -1.10911345       0.00000000
Si       0.73156761      -1.34912151       3.40770889       0.00000000
Si      -1.47339466       0.26062371      -3.44486299       0.00000000
Si      -2.85069203       2.53856844      -0.21249112       0.00000000
Si      -1.50979467      -2.05320789       2.88434921       0.00000000
Si      -1.64432726       1.62059436       3.12118505       0.00000000
