10
Lattice="16.28999089631971 0.0 0.0 0.0 16.28999089631971 0.0 0.0 0.0 34.433804113860816" Properties=species:S:1:pos:R:3:initial_magmoms:R:1 pbc="T T T"
Si      -0.07774728       1.02931623       2.08954770       0.00000000
Si       0.75876702      -2.20328766       0.29957426       0.00000000
Si      -2.34650512      -0.11999214      -0.40046537       0.00000000
Si       1.44570003       1.62779454      -1.00009597       0.00000000
Si      -1.07445160      -3.39286165      -0.67631472       0.00000000
Si      -2.72321137       1.90667934      -1.45493234       0.00000000
Si       2.17827762       1.63103625       2.50275358       0.00000000
Si      -1.07559190       3.13171992       1.75491981       0.00000000
Si      -2.68245379      -1.98949770      -1.78274234       0.00000000
Si       0.98185857      -2.67832035       2.63704549       0.00000000
