10
Lattice="16.28999089631971 0.0 0.0 0.0 16.28999089631971 0.0 0.0 0.0 34.433804113860816" Properties=species:S:1:pos:R:3:initial_magmoms:R:1 pbc="T T T"
Si       0.07774728      -1.02931623      -2.08954770       0.00000000
Si      -0.99784462       2.10240369      -0.33462790       0.00000000
Si       2.25602491       0.60172002       0.41320588       0.00000000
Si      -2.18367517       0.11657124       1.15566798       0.00000000
Si      -0.55483807      -0.32425245       2.90580149       0.00000000
Si       2.50399129      -1.85613147       1.14175671       0.00000000
Si       1.52344732       0.59847831      -3.08964367       0.00000000
Si      -2.26875784      -1.14930837      -2.49001307       0.00000000
Si      -3.50456611      -1.10675889      -0.46213634       0.00000000
Si       0.83651431      -3.23260389      -1.78997344       0.00000000
