10
Lattice="16.28999089631971 0.0 0.0 0.0 16.28999089631971 0.0 0.0 0.0 34.433804113860816" Properties=species:S:1:pos:R:3:initial_magmoms:R:1 pbc="T T T"
Si       0.80256269       1.71395235       1.39605405       0.00000000
Si      -1.89478831      -0.89248023       1.21751812       0.00000000
Si       1.69063159      -1.76225220       0.24842568       0.00000000
Si      -0.27177259       1.20063816      -2.25897720       0.00000000
Si       0.69944373      -1.01600730      -2.95939560       0.00000000
Si       2.16641362       0.40557213       2.73654557       0.00000000
Si      -0.56058844      -2.32341012       2.68584177       0.00000000
Si       2.45132572       2.68253946      -0.02112302       0.00000000
Si       2.69842873      -2.02976658      -1.81047665       0.00000000
Si       3.52240951      -0.85004478       1.35765000       0.00000000
