10
Lattice="16.28999089631971 0.0 0.0 0.0 16.28999089631971 0.0 0.0 0.0 34.433804113860816" Properties=species:S:1:pos:R:3:initial_magmoms:R:1 pbc="T T T"
Si      -1.35546663      -1.35834165       1.35762235       0.00000000
Si       1.35692492       1.35725022       1.35751905       0.00000000
Si       1.35734683      -1.35770634      -1.35669264       0.00000000
Si      -1.35804045       1.35739683      -1.35672707       0.00000000
Si       0.00132104      -2.71562445       2.71121595       0.00000000
Si       2.71440157      -0.00016290      -2.71348858       0.00000000
Si      -0.00165675      -2.71370223      -2.71459046       0.00000000
Si      -2.71413408      -0.00254124      -2.71472820       0.00000000
Si       2.71469479       2.71472850       0.00051651       0.00000000
Si       2.71441786      -2.71505430       0.00092971       0.00000000
