10
Lattice="16.28999089631971 0.0 0.0 0.0 16.28999089631971 0.0 0.0 0.0 34.433804113860816" Properties=species:S:1:pos:R:3:initial_magmoms:R:1 pbc="T T T"
Si      -2.17523858      -0.00514764       0.79056615       0.00000000
Si      -0.30133568       0.59121297      -2.22070614       0.00000000
Si       1.09951473       1.49296221       1.40514103       0.00000000
Si       1.00094394      -2.14547445       0.18924829       0.00000000
Si      -1.52034800      -0.64154907       2.94426407       0.00000000
Si       3.27248670       0.68435919       1.09602860       0.00000000
Si      -0.19330691      -1.55023785      -3.16016414       0.00000000
Si       1.74497340      -2.37180771      -2.04991437       0.00000000
Si       2.79110091      -1.63657485       1.64807165       0.00000000
Si       0.18034496       1.02659580       3.50811792       0.00000000
