10
Lattice="16.28999089631971 0.0 0.0 0.0 16.28999089631971 0.0 0.0 0.0 34.433804113860816" Properties=species:S:1:pos:R:3:initial_magmoms:R:1 pbc="T T T"
Si      -0.81613944       0.61186869      -2.29129547       0.00000000
Si       0.97121632      -2.21664546      -0.70041840       0.00000000
Si       1.01049476       2.26518966       0.64339599       0.00000000
Si       0.27177259      -1.20063816       2.25897720       0.00000000
Si       1.18664668       0.34710732      -3.58149640       0.00000000
Si       1.89038608      -1.75027905      -2.80339529       0.00000000
Si       2.72309830       1.48190130       2.23785418       0.00000000
Si       1.07433527       0.51331419       3.65503125       0.00000000
Si      -2.49813081      -1.07965233      -2.74509883       0.00000000
Si       1.76925364       3.45683574      -1.41474807       0.00000000
