10
Lattice="16.28999089631971 0.0 0.0 0.0 16.28999089631971 0.0 0.0 0.0 34.433804113860816" Properties=species:S:1:pos:R:3:initial_magmoms:R:1 pbc="T T T"
Si       1.35671265      -1.35270531      -1.35614170       0.00000000
Si      -1.35597634      -1.35492075       1.35645160       0.00000000
Si       1.35847197       1.36018242       1.35596953       0.00000000
Si      -1.35454445       1.36331010      -1.35899971       0.00000000
Si      -0.00377928      -2.70627399      -2.68709161       0.00000000
Si      -2.71294518      -2.71166598      -0.00117075       0.00000000
Si       0.00130320      -2.71243161       2.71341971       0.00000000
Si       2.71384884      -2.71298547      -0.00141179       0.00000000
Si      -2.71345011       0.00215028       2.71362632       0.00000000
Si       2.71217097       0.01526373      -2.71623984       0.00000000
