10
Lattice="16.28999089631971 0.0 0.0 0.0 16.28999089631971 0.0 0.0 0.0 34.433804113860816" Properties=species:S:1:pos:R:3:initial_magmoms:R:1 pbc="T T T"
Si       1.35597634       1.35492075      -1.35645160       0.00000000
Si      -1.35696883      -1.35674523      -1.35762235       0.00000000
Si      -1.35747377       1.35707103       1.35717471       0.00000000
Si       1.35727954      -1.35751086       1.35696811       0.00000000
Si       2.71268899       0.00221544      -2.71259330       0.00000000
Si      -0.00049033      -2.71498914       2.71397066       0.00000000
Si       2.71436686      -2.71469592      -0.00030990       0.00000000
Si       2.71444831       2.71510317      -0.00048207       0.00000000
Si       2.71521394      -0.00008145       2.71500367       0.00000000
Si      -2.71545570      -2.71484253      -0.00027547       0.00000000
