10
Lattice="16.28999089631971 0.0 0.0 0.0 16.28999089631971 0.0 0.0 0.0 34.433804113860816" Properties=species:S:1:pos:R:3:initial_magmoms:R:1 pbc="T T T"
Si       1.11810487      -1.61073891      -1.29567591       0.00000000
Si       0.19806034      -0.84090609       2.19494964       0.00000000
Si      -0.65194209       2.12398794      -0.79383736       0.00000000
Si      -2.03144349      -1.31463558       0.16146020       0.00000000
Si       2.42804894       2.11217769       1.05846130       0.00000000
Si       2.12854099      -2.03838399       1.84579067       0.00000000
Si       1.66031752       1.56906909      -2.63880162       0.00000000
Si      -0.48511620      -2.08344213      -2.88793033       0.00000000
Si      -1.71300657      -2.20400442       2.34508111       0.00000000
Si       1.47104401      -3.48092865       0.08529258       0.00000000
