10
Lattice="16.28999089631971 0.0 0.0 0.0 16.28999089631971 0.0 0.0 0.0 34.48637585096406" Properties=species:S:1:pos:R:3:initial_magmoms:R:1 pbc="T T T"
Si      -1.64392164       0.06281424      -1.77780816       0.00000000
Si      -0.39759003       1.40532201       1.94341182       0.00000000
Si       0.59049621      -2.17925081       0.93858173       0.00000000
Si       2.29162833       0.36225702      -0.79949810       0.00000000
Si       3.25830951      -0.00679293       1.26396087       0.00000000
Si       1.88722908       1.28647017       2.69183557       0.00000000
Si       1.29303504      -3.50379071      -0.99955368       0.00000000
Si      -0.30392253       0.10795383      -3.98997246       0.00000000
Si       2.88802152      -2.26571813       1.63510345       0.00000000
Si      -1.70777844       0.30480219       3.65638556       0.00000000
