10
Lattice="16.28999089631971 0.0 0.0 0.0 16.28999089631971 0.0 0.0 0.0 34.48637585096406" Properties=species:S:1:pos:R:3:initial_magmoms:R:1 pbc="T T T"
Si       2.28481911      -0.11885184       0.74842375       0.00000000
Si      -1.31018841      -1.10051982       1.71297373       0.00000000
Si       0.39759003      -1.40532201      -1.94341182       0.00000000
Si      -0.49368474       2.11776516       1.09259797       0.00000000
Si      -2.74657545       1.24137945      -1.22557751       0.00000000
Si      -1.77344343       1.00204677       2.74270300       0.00000000
Si       2.20372749      -0.80558937       3.00335118       0.00000000
Si       0.98808624      -3.58457282      -1.00483009       0.00000000
Si       1.49494959       3.11384979       1.93058289       0.00000000
Si       3.65589954      -1.41211494      -0.67945096       0.00000000
