10
Lattice="16.28999089631971 0.0 0.0 0.0 16.28999089631971 0.0 0.0 0.0 34.48637585096406" Properties=species:S:1:pos:R:3:initial_magmoms:R:1 pbc="T T T"
Si      -1.11575097      -1.56667609       1.35603751       0.00000000
Si       1.60594965       1.14238512       1.31920604       0.00000000
Si      -1.87789491       1.86070896      -0.02248513       0.00000000
Si       1.18965870      -1.88329993      -1.65010503       0.00000000
Si      -1.92029778       1.96744104      -2.35297225       0.00000000
Si       0.22722921       2.49222339       2.76803468       0.00000000
Si      -2.52134991      -0.23043834       2.75671969       0.00000000
Si      -1.88885808      -3.28280057      -0.12597880       0.00000000
Si       3.04642548       2.43548532      -0.25716505       0.00000000
Si       2.79130779      -2.74587172      -0.00051730       0.00000000
