10
Lattice="16.28999089631971 0.0 0.0 0.0 16.28999089631971 0.0 0.0 0.0 34.48637585096406" Properties=species:S:1:pos:R:3:initial_magmoms:R:1 pbc="T T T"
Si      -1.35119034       1.31064453       1.51471145       0.00000000
Si       1.97605845       0.66505554      -1.26694881       0.00000000
Si       1.33260345      -1.42609176       1.51225602       0.00000000
Si      -2.01508929      -0.96635538      -1.16853408       0.00000000
Si       2.77290009       2.62150083       0.08218453       0.00000000
Si      -2.71815592       2.72391606       0.12026785       0.00000000
Si       2.73820239      -2.76232951       0.11157383       0.00000000
Si      -2.74146202      -2.79592763       0.22758262       0.00000000
Si      -0.00809613       2.64820014       2.89740208       0.00000000
Si       2.70671382      -0.06643062       2.89091863       0.00000000
