10
Lattice="16.28999089631971 0.0 0.0 0.0 16.28999089631971 0.0 0.0 0.0 34.48637585096406" Properties=species:S:1:pos:R:3:initial_magmoms:R:1 pbc="T T T"
Si       1.15510761      -1.63841562       1.30472379       0.00000000
Si      -1.11811302      -0.86556915      -1.94630868       0.00000000
Si       2.21855139       0.54809334      -1.06928517       0.00000000
Si      -2.16815013      -0.13970304       1.32379476       0.00000000
Si       0.14074560       2.81717631      -0.34069110       0.00000000
Si       0.63944766      -2.86199010      -1.58347732       0.00000000
Si      -1.22026761      -2.13759009       2.31365776       0.00000000
Si      -2.27662524       2.78044236      -0.43680468       0.00000000
Si      -2.30237973       2.14127163       1.81312222       0.00000000
Si      -2.72463282       1.15263153      -2.14339843       0.00000000
