10
Lattice="16.28999089631971 0.0 0.0 0.0 16.28999089631971 0.0 0.0 0.0 34.48637585096406" Properties=species:S:1:pos:R:3:initial_magmoms:R:1 pbc="T T T"
Si      -0.13422960       2.28097467       0.48932746       0.00000000
Si      -1.87069473      -0.90342711      -1.16126038       0.00000000
Si       0.94788252      -1.99788705       0.98986300       0.00000000
Si       2.16815013       0.13970304      -1.32379476       0.00000000
Si      -0.10847511       2.92014540      -1.76059944       0.00000000
Si      -2.32684731       2.17660464       1.24157920       0.00000000
Si       1.05003711      -0.72586611      -3.27010344       0.00000000
Si      -0.75228849      -2.28323898      -2.73146044       0.00000000
Si       3.32325774      -1.49871258      -0.01907098       0.00000000
Si      -0.55648269       1.29233457      -3.46719319       0.00000000
