10
Lattice="16.28999089631971 0.0 0.0 0.0 16.28999089631971 0.0 0.0 0.0 34.48637585096406" Properties=species:S:1:pos:R:3:initial_magmoms:R:1 pbc="T T T"
Si       1.34609157       1.33081155       1.35731209       0.00000000
Si       1.45787355      -1.30297194      -1.26826477       0.00000000
Si      -1.37003787      -1.37816658       1.35179427       0.00000000
Si      -1.22148936       1.48362804      -1.40799675       0.00000000
Si      -2.05094358      -0.37450710      -2.57208018       0.00000000
Si      -0.39237723      -2.23937001      -2.50721059       0.00000000
Si      -0.00935046       2.69630451       2.71324817       0.00000000
Si       2.70311373      -0.01845657       2.71404136       0.00000000
Si       2.72157030       2.69909010      -0.03538304       0.00000000
Si      -2.74067847       2.69731449      -0.02753394       0.00000000
