10
Lattice="16.28999089631971 0.0 0.0 0.0 16.28999089631971 0.0 0.0 0.0 34.48637585096406" Properties=species:S:1:pos:R:3:initial_magmoms:R:1 pbc="T T T"
Si      -2.08757979       0.36250137       0.92399398       0.00000000
Si       0.05152527      -2.16925785       1.01886606       0.00000000
Si       1.64287908       1.43813007       1.01865914       0.00000000
Si      -0.40988898       0.39530943      -2.43167021       0.00000000
Si      -3.21356088      -1.24574517      -0.42266526       0.00000000
Si       1.63282815       1.59376473      -2.73259849       0.00000000
Si      -1.93710906      -3.16534248       0.18088114       0.00000000
Si       1.85780934      -3.27261213       0.09063025       0.00000000
Si       3.27404565       0.04460202      -1.91847816       0.00000000
Si      -2.00751444      -0.44945739       3.19716472       0.00000000
