10
Lattice="16.28999089631971 0.0 0.0 0.0 16.28999089631971 0.0 0.0 0.0 34.48637585096406" Properties=species:S:1:pos:R:3:initial_magmoms:R:1 pbc="T T T"
Si      -1.35493704      -1.35900954      -1.35693619       0.00000000
Si       1.35775521       1.35745842      -1.35641889       0.00000000
Si      -1.35697329       1.35706890       1.35828116       0.00000000
Si       1.35769005      -1.35739683       1.35769489       0.00000000
Si      -0.00102627      -2.71554300      -2.71187217       0.00000000
Si       0.00245979       2.71438545      -2.71497594       0.00000000
Si       2.71507059       2.71461188       0.00034486       0.00000000
Si      -2.71507548       2.71476664       0.00044832       0.00000000
Si       2.71555929      -0.00128691       2.71435519       0.00000000
Si      -2.71467474      -0.00034209       2.71525183       0.00000000
