10
Lattice="16.28999089631971 0.0 0.0 0.0 16.28999089631971 0.0 0.0 0.0 34.48637585096406" Properties=species:S:1:pos:R:3:initial_magmoms:R:1 pbc="T T T"
Si      -1.33526428       1.36038767       1.32555357       0.00000000
Si       1.40012713      -1.35400662       1.29087060       0.00000000
Si      -1.61859625      -1.17908649      -1.23465019       0.00000000
Si       0.72637273       1.82957225      -1.39611670       0.00000000
Si      -0.18486055      -2.30097620      -2.69669267       0.00000000
Si      -2.56991596       2.66474426      -0.14060448       0.00000000
Si      -2.38282531       0.49100666      -2.86664163       0.00000000
Si      -2.69310094       0.01649851       2.67016432       0.00000000
Si       0.01970601      -2.70014636       2.66468098       0.00000000
Si       0.01735700       2.72992055       2.66343947       0.00000000
