10
Lattice="16.28999089631971 0.0 0.0 0.0 16.28999089631971 0.0 0.0 0.0 34.48637585096406" Properties=species:S:1:pos:R:3:initial_magmoms:R:1 pbc="T T T"
Si       0.77310711       1.71612448       1.48201631       0.00000000
Si      -0.22797855       0.48906312      -2.41349588       0.00000000
Si       1.78559577      -1.76428845       0.12246119       0.00000000
Si      -1.96317306      -1.03666302       1.26813169       0.00000000
Si       2.10580830       0.34712361       2.90321100       0.00000000
Si       3.07851678       1.39950063      -1.52412623       0.00000000
Si       3.01578399      -1.25237520      -1.83964226       0.00000000
Si      -0.62858223      -2.37205206       2.88217085       0.00000000
Si       1.88885808       3.28280057       0.12597880       0.00000000
Si       3.47858289      -0.96023034       1.49172423       0.00000000
