10
Lattice="16.28999089631971 0.0 0.0 0.0 16.28999089631971 0.0 0.0 0.0 34.48637585096406" Properties=species:S:1:pos:R:3:initial_magmoms:R:1 pbc="T T T"
Si       1.35723393      -1.35629297      -1.35679824       0.00000000
Si       1.35715248       1.35665245       1.35755694       0.00000000
Si      -1.35754344       1.35745554      -1.35724657       0.00000000
Si      -1.35705474      -1.35844325       1.35676376       0.00000000
Si       2.71495656      -0.00066097      -2.71204460       0.00000000
Si      -2.71485882       0.00030208      -2.71401032       0.00000000
Si       0.00164529       2.71442232      -2.71452762       0.00000000
Si       0.00236205      -2.71338029      -2.71576913       0.00000000
Si      -2.71492398      -2.71455317       0.00010346       0.00000000
Si       0.00135207      -2.71587266       2.71380341       0.00000000
