10
Lattice="16.28999089631971 0.0 0.0 0.0 16.28999089631971 0.0 0.0 0.0 34.48637585096406" Properties=species:S:1:pos:R:3:initial_magmoms:R:1 pbc="T T T"
Si       0.98585451       1.56881659      -1.41332144       0.00000000
Si      -0.66769452       0.96336617       2.05801012       0.00000000
Si      -1.60884927      -1.14456651      -1.34317612       0.00000000
Si       2.19538701      -0.83460838       1.12618772       0.00000000
Si       1.33108848       2.37798977       2.26285930       0.00000000
Si       2.31674751      -2.76421656      -0.16650032       0.00000000
Si       2.36622024       0.11761054      -2.85154207       0.00000000
Si       1.64046816       3.40808791       0.08349156       0.00000000
Si      -0.36329958      -2.58551526      -2.86847489       0.00000000
Si      -2.91941235      -2.60033916       0.08080162       0.00000000
