10
Lattice="16.28999089631971 0.0 0.0 0.0 16.28999089631971 0.0 0.0 0.0 34.48637585096406" Properties=species:S:1:pos:R:3:initial_magmoms:R:1 pbc="T T T"
Si      -1.48579461      -1.71986792      -0.71904134       0.00000000
Si       2.20305960      -0.50077741       0.78604840       0.00000000
Si       0.15630255       1.23656250      -2.05566504       0.00000000
Si      -1.26817650       1.35404598       1.54492153       0.00000000
Si      -0.53312283       3.29268630       0.44149483       0.00000000
Si       1.80387315      -2.79316715       1.11501413       0.00000000
Si      -1.87072731       2.52019821      -1.72431976       0.00000000
Si      -2.26676979      -2.51200175       1.34486595       0.00000000
Si      -0.30149532       0.98499603       3.60838049       0.00000000
Si      -0.19272699      -2.96815433       2.40159807       0.00000000
