10
Lattice="16.28999089631971 0.0 0.0 0.0 16.28999089631971 0.0 0.0 0.0 34.48637585096406" Properties=species:S:1:pos:R:3:initial_magmoms:R:1 pbc="T T T"
Si      -1.35848826       1.35786924      -1.36131596       0.00000000
Si       1.35795069      -1.35922131      -1.36104007       0.00000000
Si       1.35542574       1.37340990       1.36883400       0.00000000
Si      -1.37476197      -1.35496962       1.36928232       0.00000000
Si       2.62705572      -0.05489730       2.78091393       0.00000000
Si      -2.71520091      -2.71140534      -0.00182778       0.00000000
Si       2.71639008      -2.71200807      -0.00589717       0.00000000
Si      -2.71352304       2.71583622      -0.00041384       0.00000000
Si       0.00006516      -2.71386513      -2.71901085       0.00000000
Si       2.71728603       2.71629234      -0.00655242       0.00000000
