10
Lattice="16.28999089631971 0.0 0.0 0.0 16.28999089631971 0.0 0.0 0.0 34.48637585096406" Properties=species:S:1:pos:R:3:initial_magmoms:R:1 pbc="T T T"
Si      -1.35262127      -1.36953288      -1.33788590       0.00000000
Si      -1.35693812       1.35861858       1.36328169       0.00000000
Si       1.35888899      -1.35816246       1.36259196       0.00000000
Si       1.37291468       1.37665161      -1.37631065       0.00000000
Si      -0.01735700      -2.72992055      -2.66343947       0.00000000
Si      -2.58727295      -0.06517629      -2.80404396       0.00000000
Si      -2.71045793      -2.71342204       0.00672485       0.00000000
Si      -2.71360190       2.71521720       0.00448323       0.00000000
Si       2.71600889       2.71420722       0.00637998       0.00000000
Si      -2.71238015       0.00016290       2.71983852       0.00000000
