10
Lattice="16.28999089631971 0.0 0.0 0.0 16.28999089631971 0.0 0.0 0.0 34.48637585096406" Properties=species:S:1:pos:R:3:initial_magmoms:R:1 pbc="T T T"
Si       1.35506736      -1.35804843      -1.35976407       0.00000000
Si      -1.35992178       1.36001952      -1.35903986       0.00000000
Si       1.35653346       1.35031068       1.37421387       0.00000000
Si      -1.37041254      -1.35795069       1.38773254       0.00000000
Si      -0.11282454       2.65944024       2.71345854       0.00000000
Si       2.71409319      -2.71365336      -0.00417285       0.00000000
Si       2.71215468       0.00063531      -2.71628643       0.00000000
Si       2.71503801       2.71471221      -0.00041384       0.00000000
Si      -2.71671588      -2.71410948       0.00196572       0.00000000
Si       2.65947282      -0.15408711       2.76601581       0.00000000
