10
Lattice="16.28999089631971 0.0 0.0 0.0 16.28999089631971 0.0 0.0 0.0 34.48637585096406" Properties=species:S:1:pos:R:3:initial_magmoms:R:1 pbc="T T T"
Si      -0.48754341      -2.06610957       0.93961632       0.00000000
Si       1.52445078      -0.34868745      -1.72500948       0.00000000
Si       0.56350368       1.33696917       1.85812697       0.00000000
Si      -1.71610263       0.30967290      -1.59740982       0.00000000
Si       0.61146144      -2.25235314      -2.80984802       0.00000000
Si      -1.11133638      -3.36950505      -0.90868203       0.00000000
Si      -1.84858920       2.64258009      -1.86161010       0.00000000
Si       0.78447753       3.50065584       1.03948892       0.00000000
Si       1.42148169      -2.88065844       1.99862454       0.00000000
Si      -1.28498778       1.33105590       3.35604354       0.00000000
