10
Lattice="16.28999089631971 0.0 0.0 0.0 16.28999089631971 0.0 0.0 0.0 34.48637585096406" Properties=species:S:1:pos:R:3:initial_magmoms:R:1 pbc="T T T"
Si      -1.47349566       0.20018781       1.77260071       0.00000000
Si      -0.68848056       0.42323049      -2.20861220       0.00000000
Si       1.82296503       1.42184007       0.58851033       0.00000000
Si       0.60431013      -2.06889516       1.04400664       0.00000000
Si       1.43972649       0.20334807      -3.20788999       0.00000000
Si       1.48998114       1.75032792       2.91603163       0.00000000
Si      -1.61424126      -2.61698850       2.11329181       0.00000000
Si       3.78437877       0.21895389      -0.09228559       0.00000000
Si      -2.75737572       2.22053877       1.42046013       0.00000000
Si      -0.35805420       0.59249988       3.81402287       0.00000000
