10
Lattice="16.28999089631971 0.0 0.0 0.0 16.28999089631971 0.0 0.0 0.0 34.48637585096406" Properties=species:S:1:pos:R:3:initial_magmoms:R:1 pbc="T T T"
Si      -0.12136050       1.92960819       1.29268803       0.00000000
Si      -1.42100928      -1.24981767      -1.35659132       0.00000000
Si       1.39541769       1.39266468      -1.31779413       0.00000000
Si      -0.02990844      -1.58760711       1.78539516       0.00000000
Si      -2.31674751       2.76421656       0.16650032       0.00000000
Si       2.62839150       2.58329982       0.29861770       0.00000000
Si       0.04834872      -2.55894723      -2.69583599       0.00000000
Si      -2.82427875      -2.54097936       0.09442375       0.00000000
Si      -2.68004709       0.17870130      -2.70197457       0.00000000
Si       2.77535988       0.14325426      -2.70590602       0.00000000
