10
Lattice="16.28999089631971 0.0 0.0 0.0 16.28999089631971 0.0 0.0 0.0 34.48637585096406" Properties=species:S:1:pos:R:3:initial_magmoms:R:1 pbc="T T T"
Si       0.39918645       2.29238974      -0.32896572       0.00000000
Si       2.15497152      -0.35253189       0.91178580       0.00000000
Si      -0.47809521      -1.21060764      -1.98931322       0.00000000
Si      -1.99660014      -0.17498718       1.28658394       0.00000000
Si      -1.80387315       2.79316715      -1.11501413       0.00000000
Si       1.93399767      -2.51621856       1.73042385       0.00000000
Si       2.24710776       1.37616291       2.58065143       0.00000000
Si       2.22314517       2.41424220      -1.85043650       0.00000000
Si      -3.28966776       1.07329923      -1.83405547       0.00000000
Si      -2.13669414      -2.13654753       2.53723306       0.00000000
