10
Lattice="16.28999089631971 0.0 0.0 0.0 16.28999089631971 0.0 0.0 0.0 34.48637585096406" Properties=species:S:1:pos:R:3:initial_magmoms:R:1 pbc="T T T"
Si      -1.35646830      -1.35790637      -1.35562571       0.00000000
Si      -1.35669636       1.35804028       1.35645338       0.00000000
Si       1.35858600      -1.35746089       1.35672927       0.00000000
Si       1.35812988       1.35774707      -1.35728105       0.00000000
Si      -0.00752598      -2.70646851      -2.71207909       0.00000000
Si       0.00118917       2.71268411       2.71442416       0.00000000
Si      -2.71419093      -2.71353837      -0.00037935       0.00000000
Si       2.71373481       0.00044798       2.71404481       0.00000000
Si      -2.71427238      -0.00059296       2.71397584       0.00000000
Si      -2.71368594       2.71529050      -0.00086216       0.00000000
