10
Lattice="16.28999089631971 0.0 0.0 0.0 16.28999089631971 0.0 0.0 0.0 34.48637585096406" Properties=species:S:1:pos:R:3:initial_magmoms:R:1 pbc="T T T"
Si       1.23826384      -1.93843411       0.05290213       0.00000000
Si       0.82787409       0.84262143      -2.04300853       0.00000000
Si      -2.24451765      -0.31167168      -0.71345454       0.00000000
Si       0.12715974       1.53101728       1.81270839       0.00000000
Si      -2.36926647       2.09953828      -0.80905083       0.00000000
Si       0.53924787      -2.58550549      -2.13943249       0.00000000
Si      -0.39887694       2.80711072      -2.02414448       0.00000000
Si       1.94174586       0.64780932       3.06970300       0.00000000
Si       0.08868276      -0.78461341      -3.61400178       0.00000000
Si       3.52669445      -1.46669200      -0.06135130       0.00000000
