10
Lattice="16.28999089631971 0.0 0.0 0.0 16.28999089631971 0.0 0.0 0.0 34.48637585096406" Properties=species:S:1:pos:R:3:initial_magmoms:R:1 pbc="T T T"
Si       1.20537855       1.36511829      -1.46038645       0.00000000
Si      -1.27376397      -1.35884664      -1.51073658       0.00000000
Si       1.33573113      -1.31484735       1.50236187       0.00000000
Si      -1.36909305       1.37482713       1.52235363       0.00000000
Si      -0.65782278       2.91840237      -2.10097124       0.00000000
Si       2.29073238      -0.83082258      -2.78618142       0.00000000
Si       2.61693963       2.65049703       0.06391364       0.00000000
Si      -2.71423980      -2.65194684       0.06563451       0.00000000
Si       0.28691577      -2.47032963      -2.87067309       0.00000000
Si      -2.63907774       2.84051988       0.26188968       0.00000000
