10
Lattice="16.28999089631971 0.0 0.0 0.0 16.28999089631971 0.0 0.0 0.0 34.48637585096406" Properties=species:S:1:pos:R:3:initial_magmoms:R:1 pbc="T T T"
Si      -1.33687143      -1.33915203      -1.37369658       0.00000000
Si       1.37839464       1.37399634      -1.36683378       0.00000000
Si       1.17537237      -1.48471947       1.45436026       0.00000000
Si      -1.42620579       1.31795874       1.41311453       0.00000000
Si       2.13722912       0.29022264       2.69456000       0.00000000
Si       0.41314698       2.09808684       2.75815291       0.00000000
Si      -2.69241120      -2.69610414       0.01482915       0.00000000
Si      -2.69531082       0.01363473      -2.72883947       0.00000000
Si       0.01723482      -2.69860140      -2.72921882       0.00000000
Si       2.73064939      -2.70356822       0.01645001       0.00000000
