10
Lattice="16.28999089631971 0.0 0.0 0.0 16.28999089631971 0.0 0.0 0.0 34.48637585096406" Properties=species:S:1:pos:R:3:initial_magmoms:R:1 pbc="T T T"
Si      -0.96185675      -1.77494211      -1.24019974       0.00000000
Si       0.92120927      -1.19979108       1.84312539       0.00000000
Si      -1.72408214       1.80786420       0.06359291       0.00000000
Si       1.90033601       1.10749194      -1.21305895       0.00000000
Si      -2.13722912      -0.29022264      -2.69456000       0.00000000
Si       0.61243884       2.43942750      -2.70073306       0.00000000
Si       0.60971352       0.56164662       3.64893650       0.00000000
Si      -3.56343491       1.02773610      -1.28144547       0.00000000
Si       3.01300817      -2.48666850       0.49519015       0.00000000
Si      -0.80480486       3.66181281      -1.30968983       0.00000000
