10
Lattice="16.28999089631971 0.0 0.0 0.0 16.28999089631971 0.0 0.0 0.0 34.48637585096406" Properties=species:S:1:pos:R:3:initial_magmoms:R:1 pbc="T T T"
Si      -0.41775705       0.88050708       2.15940012       0.00000000
Si      -1.83935277      -0.78012810      -1.34503838       0.00000000
Si       0.91927728       1.85394861      -1.37328274       0.00000000
Si       1.72408214      -1.80786420      -0.06359291       0.00000000
Si      -0.41314698      -2.09808684      -2.75815291       0.00000000
Si       1.71686893       2.20063239       2.34593703       0.00000000
Si       2.33652098       0.63156330      -2.76432597       0.00000000
Si       0.76222539      -3.58280631      -1.30379265       0.00000000
Si       3.62441816      -0.70037226      -1.27665186       0.00000000
Si       1.84017120       3.65371668      -0.14404967       0.00000000
