10
Lattice="16.28999089631971 0.0 0.0 0.0 16.28999089631971 0.0 0.0 0.0 34.48637585096406" Properties=species:S:1:pos:R:3:initial_magmoms:R:1 pbc="T T T"
Si       0.82321515       1.89903933      -1.01458974       0.00000000
Si       1.79147646      -1.49473782       0.14153217       0.00000000
Si      -0.57518361       0.76150863       2.13525964       0.00000000
Si      -1.87162326      -0.87338835      -1.14143071       0.00000000
Si      -1.08580995       2.71358820      -2.07359797       0.00000000
Si      -1.94266395      -3.02357061      -0.13832493       0.00000000
Si      -2.47466277      -0.55086264       2.60679212       0.00000000
Si       1.24234056       3.33347157       0.80546424       0.00000000
Si       1.43953101      -2.90807451      -1.70576608       0.00000000
Si       2.82944268       1.29049380      -2.05190602       0.00000000
