10
Lattice="16.28999089631971 0.0 0.0 0.0 16.28999089631971 0.0 0.0 0.0 34.48637585096406" Properties=species:S:1:pos:R:3:initial_magmoms:R:1 pbc="T T T"
Si       2.11454041      -0.89573823       0.40569795       0.00000000
Si      -0.25155018       2.21164443      -0.75732124       0.00000000
Si      -0.84600486      -1.44937017      -1.68176354       0.00000000
Si      -1.06386732       0.04048065       2.18878253       0.00000000
Si      -2.20929867       2.06953047      -2.04911263       0.00000000
Si       1.70955472      -2.95779159       1.57978727       0.00000000
Si      -0.02358792      -0.85747302      -3.74184284       0.00000000
Si       3.87632672       0.13887225      -0.78270322       0.00000000
Si      -0.37514241      -3.74458230      -1.35676376       0.00000000
Si       1.03835133      -0.73643832       3.79484899       0.00000000
