10
Lattice="16.28999089631971 0.0 0.0 0.0 16.28999089631971 0.0 0.0 0.0 34.48637585096406" Properties=species:S:1:pos:R:3:initial_magmoms:R:1 pbc="T T T"
Si      -1.20537855      -1.36511829       1.46038645       0.00000000
Si       1.41156108       1.28537874       1.52430008       0.00000000
Si      -1.86320133       1.55328408      -0.64058479       0.00000000
Si       1.08535383      -2.19594087      -1.32579497       0.00000000
Si      -2.47914252      -2.72396493      -0.05035014       0.00000000
Si       2.44477062       2.06656569      -2.03638715       0.00000000
Si      -1.48188501       1.81289781      -3.00942078       0.00000000
Si       3.19195449       2.22988923       0.31855742       0.00000000
Si      -2.57447160       0.00970884       2.98274008       0.00000000
Si       0.13035258      -2.67996564       2.96274832       0.00000000
