10
Lattice="16.28999089631971 0.0 0.0 0.0 16.28999089631971 0.0 0.0 0.0 34.48637585096406" Properties=species:S:1:pos:R:3:initial_magmoms:R:1 pbc="T T T"
Si       1.34947989       1.33216362       1.36459217       0.00000000
Si       1.35311256      -1.35773892      -1.35514290       0.00000000
Si      -1.35902583       1.35560493      -1.35559122       0.00000000
Si      -1.36186029      -1.34288244       1.37538641       0.00000000
Si      -0.05462037       2.55956625       2.77018866       0.00000000
Si       2.71307277      -0.00066789      -2.71232049       0.00000000
Si      -0.00193851       2.71428867      -2.71211357       0.00000000
Si      -2.71409319       2.71365336       0.00417285       0.00000000
Si      -0.00206883      -2.71575477      -2.71228600       0.00000000
Si      -2.71673217      -0.00074934      -2.71252741       0.00000000
