10
Lattice="16.28999089631971 0.0 0.0 0.0 16.28999089631971 0.0 0.0 0.0 34.48637585096406" Properties=species:S:1:pos:R:3:initial_magmoms:R:1 pbc="T T T"
Si      -1.35433925       1.35745291      -1.35621197       0.00000000
Si       1.35801321       1.35635660       1.35717759       0.00000000
Si      -1.35652211      -1.35858923       1.35707413       0.00000000
Si       1.35846770      -1.35919196      -1.36169531       0.00000000
Si       0.00349741       2.70134208      -2.70082273       0.00000000
Si      -2.71383749      -0.01179642      -2.70831662       0.00000000
Si       2.71500768       2.71271250      -0.00034486       0.00000000
Si       0.00084059       2.71344555       2.71445865       0.00000000
Si      -2.71473344       2.71373877       0.00062076       0.00000000
Si      -2.71427732      -0.00146919       2.71463108       0.00000000
