10
Lattice="16.28999089631971 0.0 0.0 0.0 16.28999089631971 0.0 0.0 0.0 34.48637585096406" Properties=species:S:1:pos:R:3:initial_magmoms:R:1 pbc="T T T"
Si       1.39913085      -1.19496924      -1.45608457       0.00000000
Si       1.62525723       1.15768143       1.32462244       0.00000000
Si      -0.89114445      -1.90676079       1.19657445       0.00000000
Si      -1.29872025       1.49563377      -1.44580763       0.00000000
Si       0.01689273       2.20509585       2.67700642       0.00000000
Si       2.72187071      -2.53856844      -0.06093746       0.00000000
Si       0.04799034      -2.55655260      -2.81008942       0.00000000
Si      -2.67866244       2.74504419      -0.05769574       0.00000000
Si      -2.72279205      -2.71096551      -0.04393567       0.00000000
Si      -2.66722686       0.15783381      -2.81036531       0.00000000
