10
Lattice="16.28999089631971 0.0 0.0 0.0 16.28999089631971 0.0 0.0 0.0 34.48637585096406" Properties=species:S:1:pos:R:3:initial_magmoms:R:1 pbc="T T T"
Si       1.12598109       1.60824654       1.34665924       0.00000000
Si      -2.27149063      -0.37735785       0.61327156       0.00000000
Si       1.27645182      -1.91959731       0.60354640       0.00000000
Si       0.15354954      -0.74336157      -2.26858404       0.00000000
Si      -0.97643889      -2.79598302      -1.71462908       0.00000000
Si       3.21356088       1.24574517       0.42266526       0.00000000
Si      -1.84593556      -1.63471779       2.54295780       0.00000000
Si       3.26508615      -0.92351268       1.44153132       0.00000000
Si      -3.06363749      -1.75081662      -1.15119036       0.00000000
Si      -0.79622262       0.97456554      -3.55678885       0.00000000
