10
Lattice="16.28999089631971 0.0 0.0 0.0 16.28999089631971 0.0 0.0 0.0 34.48637585096406" Properties=species:S:1:pos:R:3:initial_magmoms:R:1 pbc="T T T"
Si      -2.00278057      -0.76574403       1.09839168       0.00000000
Si      -1.87947830       0.68734026      -1.39159502       0.00000000
Si       2.24156916      -0.62807724       0.83067380       0.00000000
Si       0.09151722       2.09666961       1.36514395       0.00000000
Si       1.25255439      -2.12993379      -1.09732261       0.00000000
Si      -0.25314660      -2.07461295       2.21350927       0.00000000
Si      -0.07872957       1.75664844      -2.62686320       0.00000000
Si       3.19640751       1.12642092      -0.78653121       0.00000000
Si       1.74649977       3.01775508      -1.52088451       0.00000000
Si       2.55827934      -1.01206512      -2.66931596       0.00000000
