10
Lattice="16.28999089631971 0.0 0.0 0.0 16.28999089631971 0.0 0.0 0.0 34.48637585096406" Properties=species:S:1:pos:R:3:initial_magmoms:R:1 pbc="T T T"
Si      -0.92089392      -1.79976807      -1.22923307       0.00000000
Si       1.80074873       1.06930818      -1.23526819       0.00000000
Si       1.87947830      -0.68734026       1.39159502       0.00000000
Si      -1.81226643       1.70111583       0.02224372       0.00000000
Si      -0.12330227      -1.45308429       2.48998670       0.00000000
Si      -2.23981377      -0.33049152      -2.62386289       0.00000000
Si       0.47800887       2.41290738      -2.63041530       0.00000000
Si       1.97099552       1.40932935       2.75673897       0.00000000
Si      -0.92112198       3.60787662      -1.17433073       0.00000000
Si      -3.64391403       0.89691111      -1.21826639       0.00000000
