10
Lattice="16.28999089631971 0.0 0.0 0.0 16.28999089631971 0.0 0.0 0.0 34.48637585096406" Properties=species:S:1:pos:R:3:initial_magmoms:R:1 pbc="T T T"
Si       0.94977216      -1.71792711       1.28820480       0.00000000
Si      -2.12657316       0.85875993       0.51615788       0.00000000
Si      -0.00395847      -1.33227765      -1.98093302       0.00000000
Si       1.58307849       1.68344118       0.61882387       0.00000000
Si       3.06390465      -1.30852683       0.18177779       0.00000000
Si      -3.16416050      -1.25460693       0.72852510       0.00000000
Si      -1.75359244      -0.02340873      -3.09605061       0.00000000
Si      -2.79436121       1.49726277      -1.61999841       0.00000000
Si       0.34845939       3.06753732       2.16419373       0.00000000
Si       0.79622262      -0.97456554       3.55678885       0.00000000
