10
Lattice="16.28999089631971 0.0 0.0 0.0 16.28999089631971 0.0 0.0 0.0 34.48637585096406" Properties=species:S:1:pos:R:3:initial_magmoms:R:1 pbc="T T T"
Si       0.76125776      -1.26364788       1.85681649       0.00000000
Si      -2.05196726       1.13660217       0.49687998       0.00000000
Si      -0.80039027      -1.81348425      -1.39807846       0.00000000
Si       1.62026204       1.59498648      -0.85167601       0.00000000
Si      -2.34367229       2.29649904      -1.54871503       0.00000000
Si      -1.10757080      -2.19206385       2.99228105       0.00000000
Si       2.21090486      -2.97953874       1.18695275       0.00000000
Si      -3.83221991      -0.38576349       0.59878728       0.00000000
Si      -2.41901354      -1.10242575      -2.92975721       0.00000000
Si       1.31038389       0.09407475       3.74032544       0.00000000
