10
Lattice="16.28999089631971 0.0 0.0 0.0 16.28999089631971 0.0 0.0 0.0 34.48637585096406" Properties=species:S:1:pos:R:3:initial_magmoms:R:1 pbc="T T T"
Si      -1.35846770       1.35919196       1.36169531       0.00000000
Si       1.35968395      -1.35822762       1.36148839       0.00000000
Si      -1.34170845      -1.37099898      -1.37387246       0.00000000
Si       1.38042112       1.34613974      -1.37381038       0.00000000
Si      -0.01970601       2.70014636      -2.66468098       0.00000000
Si       2.71359472      -2.71476108       0.00655242       0.00000000
Si      -2.70469453      -2.72424186       0.00603512       0.00000000
Si      -2.71280695       2.71664487       0.00548334       0.00000000
Si       2.71708078       2.71516737       0.00344864       0.00000000
Si       2.71462099       0.00078192       2.71842458       0.00000000
