10
Lattice="16.28999089631971 0.0 0.0 0.0 16.28999089631971 0.0 0.0 0.0 34.48637585096406" Properties=species:S:1:pos:R:3:initial_magmoms:R:1 pbc="T T T"
Si      -1.35931090      -1.35128808       1.35293577       0.00000000
Si       1.35886293      -1.35498591      -1.36014342       0.00000000
Si      -1.35586068       1.36019871      -1.35993651       0.00000000
Si       1.34627076       1.39077504       1.36341963       0.00000000
Si       2.71283886      -2.70961344       0.00037935       0.00000000
Si      -2.71045142      -2.71287144      -0.00106908       0.00000000
Si      -2.71045142       2.71762135       0.00158637       0.00000000
Si       0.00114030      -2.71233387      -2.71732102       0.00000000
Si      -2.71318757       0.00208512      -2.71697615       0.00000000
Si       2.71453302       2.71684473      -0.00058627       0.00000000
