10
Lattice="16.28999089631971 0.0 0.0 0.0 16.28999089631971 0.0 0.0 0.0 34.48637585096406" Properties=species:S:1:pos:R:3:initial_magmoms:R:1 pbc="T T T"
Si       1.28935350      -1.11492018      -1.66483072       0.00000000
Si      -0.36562905      -2.03600565       1.22119774       0.00000000
Si       0.84923028       1.58377896       1.69821356       0.00000000
Si      -1.63248932       1.32022305      -1.38524952       0.00000000
Si      -2.37945912      -1.34791605       2.19992163       0.00000000
Si       1.40569668      -1.90431729       2.75177293       0.00000000
Si      -0.53587584      -2.37602682      -2.77080942       0.00000000
Si       2.41996095       0.53576181      -2.90575468       0.00000000
Si       2.60094285       2.88991116       0.69786669       0.00000000
Si       1.62489492       0.28470033       3.59258573       0.00000000
