10
Lattice="16.28999089631971 0.0 0.0 0.0 16.28999089631971 0.0 0.0 0.0 34.48637585096406" Properties=species:S:1:pos:R:3:initial_magmoms:R:1 pbc="T T T"
Si      -1.60836450       1.04741442       1.35238398       0.00000000
Si      -1.62525723      -1.15768143      -1.32462244       0.00000000
Si       1.14722651       1.73862439      -1.24395876       0.00000000
Si       1.63248932      -1.32022305       1.38524952       0.00000000
Si      -2.25056517      -0.96138693       2.64593418       0.00000000
Si      -0.22612638      -2.35265067      -2.78070701       0.00000000
Si       2.47945529       0.38941245      -2.77022315       0.00000000
Si       2.92184282      -2.43514323      -0.27958121       0.00000000
Si      -0.70993612       2.62653185       2.82122853       0.00000000
Si       2.48171960       0.26355591       3.08346307       0.00000000
