10
Lattice="16.28999089631971 0.0 0.0 0.0 16.28999089631971 0.0 0.0 0.0 34.48637585096406" Properties=species:S:1:pos:R:3:initial_magmoms:R:1 pbc="T T T"
Si      -0.81961506      -0.53504505       2.12212032       0.00000000
Si       2.29418586       0.21198177      -0.41621630       0.00000000
Si      -1.03721688      -1.22756553      -1.74304587       0.00000000
Si      -0.48910725       2.32143903      -0.37259101       0.00000000
Si      -2.77753785       1.84969692      -0.25833759       0.00000000
Si      -2.84308460       0.65456478       1.78042912       0.00000000
Si      -0.22985190       2.16277443      -2.77005072       0.00000000
Si       2.67406866       2.46593133       0.26530384       0.00000000
Si       0.81537966      -1.93075596      -3.02069784       0.00000000
Si       3.25853757      -1.20673062       1.22016315       0.00000000
