10
Lattice="16.2900001489832 0.0 0.0 0.0 16.2900001489832 0.0 0.0 0.0 29.27583429601014" Properties=species:S:1:pos:R:3:initial_magmoms:R:1 pbc="T T T"
Si       0.44953884      -0.88197808      -2.13931988       0.00000000
Si       1.79442497       1.03272737       1.13277864       0.00000000
Si      -0.99140941      -1.76365804       1.22911955       0.00000000
Si      -1.72437797       1.72306988      -0.15764920       0.00000000
H        0.46755558       2.40268868      -1.56788487       0.00000000
Si       0.44041644       2.35328111       2.56510469       0.00000000
Si      -2.40227003      -0.42495658       2.56776001       0.00000000
Si      -1.71844841      -0.54775665      -3.05000326       0.00000000
Si      -2.12333636       1.72971620      -2.51396273       0.00000000
H        3.76377195      -0.41848326      -0.66495959       0.00000000
