10
Lattice="16.2900001489832 0.0 0.0 0.0 16.2900001489832 0.0 0.0 0.0 29.27583429601014" Properties=species:S:1:pos:R:3:initial_magmoms:R:1 pbc="T T T"
Si      -1.79442497      -1.03272737      -1.13277864       0.00000000
Si      -1.35400852       1.32055375       1.43232605       0.00000000
Si       1.38323278      -1.50251435       1.21819967       0.00000000
Si       1.31510800       1.37532073      -1.44877028       0.00000000
H        1.96934699      -1.45121063      -1.79773823       0.00000000
H       -1.32686938       1.36996132      -2.70066351       0.00000000
Si       2.21328974      -0.32522334      -2.80131383       0.00000000
Si      -0.33185988       2.53806836      -2.71158340       0.00000000
Si      -2.73209366       2.57955899      -0.04218940       0.00000000
Si       2.71937117       2.65237529      -0.04720436       0.00000000
