10
Lattice="16.2900001489832 0.0 0.0 0.0 16.2900001489832 0.0 0.0 0.0 29.27583429601014" Properties=species:S:1:pos:R:3:initial_magmoms:R:1 pbc="T T T"
H        1.17781588      -0.90211642      -0.89607474       0.00000000
Si      -1.15514020      -1.82486609       0.92898077       0.00000000
Si      -1.01981917       0.92415289      -1.91261953       0.00000000
Si       1.12699108       1.40443096       1.56710613       0.00000000
Si       2.08542953      -2.13142760      -1.65888587       0.00000000
Si      -3.20142486      -0.78156928       1.55164849       0.00000000
Si       2.17671869      -0.21782011       2.98692555       0.00000000
Si       2.88702786       2.34428252       0.28072597       0.00000000
Si       0.72671320       1.91852707      -3.14038947       0.00000000
Si      -2.09611577      -0.82208105      -3.06725844       0.00000000
