10
Lattice="16.2900001489832 0.0 0.0 0.0 16.2900001489832 0.0 0.0 0.0 29.27583429601014" Properties=species:S:1:pos:R:3:initial_magmoms:R:1 pbc="T T T"
Si       2.22581675      -0.71910577       0.20958570       0.00000000
Si       0.13708035       0.97212205       2.15959047       0.00000000
Si      -1.38926008      -1.95772570       0.00559168       0.00000000
Si       0.26417493       1.24960591      -2.12103419       0.00000000
H        2.28511235      -1.72120630       1.33008898       0.00000000
H        1.24370893       2.58880682      -1.73561784       0.00000000
Si      -1.60293601       2.54332514       2.18798803       0.00000000
Si       2.85464334      -1.53481775      -1.86337758       0.00000000
Si       1.59187510      -0.26300205      -3.42717554       0.00000000
Si       2.17681643       2.16503876       2.30892650       0.00000000
