10
Lattice="16.2900001489832 0.0 0.0 0.0 16.2900001489832 0.0 0.0 0.0 29.27583429601014" Properties=species:S:1:pos:R:3:initial_magmoms:R:1 pbc="T T T"
H        1.36689391       0.32236281       0.53952435       0.00000000
Si      -1.71517412       0.23105736       1.54848670       0.00000000
Si      -0.24218343       1.93411172      -1.27297183       0.00000000
Si      -0.27901512      -2.16973028      -0.86665252       0.00000000
H       -0.87764005       2.82442539      -0.24143781       0.00000000
H       -1.18236079       1.89297947      -2.42617622       0.00000000
Si      -2.40515336      -1.65096056      -1.77502311       0.00000000
Si      -1.00849762      -1.47593103       3.07384550       0.00000000
Si      -3.48381201      -0.73005265       0.22407724       0.00000000
Si       1.82690723      -2.58408272      -1.81905396       0.00000000
