10
Lattice="16.2900001489832 0.0 0.0 0.0 16.2900001489832 0.0 0.0 0.0 29.27583429601014" Properties=species:S:1:pos:R:3:initial_magmoms:R:1 pbc="T T T"
Si      -2.06426882      -0.94952782      -0.72021480       0.00000000
Si       1.24752079       1.17836974      -1.71336820       0.00000000
Si       1.38355858      -1.76689487       0.92728278       0.00000000
Si      -1.07816995       1.90925318       1.11836615       0.00000000
H       -1.78782752      -1.30044700       2.61717176       0.00000000
Si      -2.58054779       0.74202580      -2.41712998       0.00000000
Si       1.33138171       3.46903698      -1.15832766       0.00000000
Si      -0.77454064       3.88338943      -0.20592622       0.00000000
Si      -3.91781020      -0.61113565       0.85503002       0.00000000
Si       3.66718854      -1.66550591       0.49347346       0.00000000
