10
Lattice="16.2900001489832 0.0 0.0 0.0 16.2900001489832 0.0 0.0 0.0 29.27583429601014" Properties=species:S:1:pos:R:3:initial_magmoms:R:1 pbc="T T T"
Si      -1.08918688      -1.34319196      -1.55858687       0.00000000
Si       2.14452476      -0.88391170       0.53475239       0.00000000
Si      -1.16992012      -0.17831034       2.12893867       0.00000000
Si       0.30906203       2.30607758      -0.78084505       0.00000000
Si      -1.16141674       3.19621206       0.95210868       0.00000000
Si       2.27738600      -0.11414403       2.72537524       0.00000000
Si      -1.83758206      -3.15183810      -0.14122662       0.00000000
Si      -1.03805794       1.96323824       2.93317511       0.00000000
Si       2.66124357       2.59037066      -0.32759659       0.00000000
Si      -2.47455365       0.19575693      -2.79405635       0.00000000
