10
Lattice="16.2900001489832 0.0 0.0 0.0 16.2900001489832 0.0 0.0 0.0 29.27583429601014" Properties=species:S:1:pos:R:3:initial_magmoms:R:1 pbc="T T T"
Si       1.31735602       1.37715661       1.39491153       0.00000000
Si      -1.41775129       1.37124334      -1.31060006       0.00000000
Si      -1.33543792      -1.30238551       1.48976524       0.00000000
Si       1.43485579      -1.32802597      -1.38209164       0.00000000
Si      -2.63852390      -2.65984751       0.09743876       0.00000000
Si      -0.02971296       2.78925528      -2.55173061       0.00000000
H        0.90820009       1.79478335      -3.20440986       0.00000000
Si       0.03059262      -2.60508053      -2.78365757       0.00000000
Si       2.75566530       0.03798828       2.66639029       0.00000000
Si      -2.72043002       2.70096347       0.12359086       0.00000000
