10
Lattice="16.2900001489832 0.0 0.0 0.0 16.2900001489832 0.0 0.0 0.0 29.27583429601014" Properties=species:S:1:pos:R:3:initial_magmoms:R:1 pbc="T T T"
Si       1.43743385       1.65641609      -0.82654463       0.00000000
Si      -1.18305377       0.98354134       1.77007549       0.00000000
Si       1.08415913      -1.52602604       1.43606750       0.00000000
Si      -1.67683625      -0.88854946      -1.44370849       0.00000000
H        2.78667266       1.04602978      -0.58384796       0.00000000
Si      -0.22510402      -3.26866998       0.61584645       0.00000000
Si      -1.31993864       3.19132506       1.17782537       0.00000000
Si      -2.37992895      -2.85382884      -0.28889393       0.00000000
Si       0.99735135       3.54950958       0.66988964       0.00000000
Si      -3.33431119       0.81637336      -1.53092120       0.00000000
