10
Lattice="16.2900001489832 0.0 0.0 0.0 16.2900001489832 0.0 0.0 0.0 29.27583429601014" Properties=species:S:1:pos:R:3:initial_magmoms:R:1 pbc="T T T"
Si      -1.38114766       1.74210149       0.77557540       0.00000000
Si      -0.68253472      -1.08453934      -1.97974902       0.00000000
Si      -0.90813493      -1.72996544       1.40734791       0.00000000
Si       2.36048618       0.48630537       0.00313251       0.00000000
H        1.68275702      -1.05699295       2.35342577       0.00000000
Si       2.91463941      -1.75405835      -0.82511011       0.00000000
Si       2.67776651       0.11111409       2.34250588       0.00000000
Si      -3.17813179      -1.39439143       0.86404697       0.00000000
Si      -3.05899324      -1.26009667      -1.49517541       0.00000000
Si       1.14600151      -2.71516835      -2.14951958       0.00000000
