10
Lattice="16.2900001489832 0.0 0.0 0.0 16.2900001489832 0.0 0.0 0.0 29.27583429601014" Properties=species:S:1:pos:R:3:initial_magmoms:R:1 pbc="T T T"
Si       1.30267873      -1.32972013      -1.43419092       0.00000000
Si      -1.38588805      -1.39639510       1.29725906       0.00000000
Si      -1.32351364       1.37332846      -1.39463048       0.00000000
Si       1.35922132       1.31844745       1.41617750       0.00000000
Si       2.69071706       0.08829180      -2.67532147       0.00000000
Si      -0.04372236       2.69770547       2.69807845       0.00000000
Si      -2.67074552      -0.00830790       2.72542208       0.00000000
Si       2.71264340       2.69448005       0.07703643       0.00000000
Si       2.72043002      -2.70096347      -0.12359086       0.00000000
Si      -0.02107926      -2.67988421       2.77434200       0.00000000
