10
Lattice="16.2900001489832 0.0 0.0 0.0 16.2900001489832 0.0 0.0 0.0 29.27583429601014" Properties=species:S:1:pos:R:3:initial_magmoms:R:1 pbc="T T T"
Si       2.18971811      -0.06357987       0.88208089       0.00000000
Si       0.49067109      -0.27411183      -2.30430092       0.00000000
Si      -0.80314588      -2.06019632       0.98937682       0.00000000
Si      -1.16638030       2.12410199      -0.44057203       0.00000000
Si      -1.73731223      -0.16211808      -3.14030164       0.00000000
H       -2.98224291       0.04430880       2.08300489       0.00000000
Si       1.47885508       1.79603768      -2.82093157       0.00000000
Si       0.73925650       3.41246181      -1.17229223       0.00000000
Si       3.32109120      -1.61010361      -0.48032861       0.00000000
Si      -2.48645675      -1.34027605       2.48238582       0.00000000
