10
Lattice="16.2900001489832 0.0 0.0 0.0 16.2900001489832 0.0 0.0 0.0 29.27583429601014" Properties=species:S:1:pos:R:3:initial_magmoms:R:1 pbc="T T T"
Si      -1.20866914       1.34972425       1.50217233       0.00000000
Si      -1.50368104      -1.24914979      -1.38826006       0.00000000
Si       1.36114354      -1.33591033       1.46437723       0.00000000
Si       1.42407181       1.33983622      -1.42942189       0.00000000
Si      -0.12253338      -2.99125128      -2.16383546       0.00000000
Si      -2.46621154       2.77803147       0.12550550       0.00000000
Si       2.82730872       2.54066987       0.11066265       0.00000000
Si      -2.55661453       0.26995788      -2.80843078       0.00000000
Si      -2.64550417      -0.08107533       2.76004954       0.00000000
Si       2.55523313      -2.88013719       0.17867042       0.00000000
