10
Lattice="16.2900001489832 0.0 0.0 0.0 16.2900001489832 0.0 0.0 0.0 29.27583429601014" Properties=species:S:1:pos:R:3:initial_magmoms:R:1 pbc="T T T"
Si       0.12007359      -1.20254410       2.02890314       0.00000000
Si      -1.31268079       2.00060750      -0.13481522       0.00000000
Si       1.71103646       1.66993679       0.26070130       0.00000000
Si      -0.14599098      -1.41255478      -2.04099406       0.00000000
H        1.29349117      -1.56589255      -2.53461391       0.00000000
Si       2.52755642       1.07500969      -1.83383826       0.00000000
H       -3.16265466      -1.03720060      -1.47632177       0.00000000
Si       2.25577406      -2.28656542       1.88726666       0.00000000
Si       0.33034491       3.73159920       0.48858440       0.00000000
Si      -1.68581954      -2.76122996       2.02255029       0.00000000
