10
Lattice="16.2900001489832 0.0 0.0 0.0 16.2900001489832 0.0 0.0 0.0 29.27583429601014" Properties=species:S:1:pos:R:3:initial_magmoms:R:1 pbc="T T T"
Si       0.31243080       2.15570785      -0.93706090       0.00000000
Si       1.77427587      -1.34840150       0.90190063       0.00000000
Si      -0.86887114       0.20795163       2.25090180       0.00000000
Si      -0.80115361      -1.56727395      -1.69070871       0.00000000
H        0.37494856      -0.36306827       2.93203336       0.00000000
H       -3.27239876       0.29015585      -0.77144751       0.00000000
Si      -1.53044388      -3.07613521      -0.00606010       0.00000000
Si       0.38041060      -3.10806361       1.48203056       0.00000000
Si       1.24457393       1.51972995      -3.03593329       0.00000000
Si      -0.38651935       2.41527271       2.78026743       0.00000000
