10
Lattice="16.2900001489832 0.0 0.0 0.0 16.2900001489832 0.0 0.0 0.0 29.27583429601014" Properties=species:S:1:pos:R:3:initial_magmoms:R:1 pbc="T T T"
Si       1.20585097      -1.29239974       1.55337870       0.00000000
Si      -1.44515107      -1.33615468      -1.34061950       0.00000000
Si      -1.40641345       1.41200092       1.34253706       0.00000000
Si       1.92112859       0.78912019      -1.25219243       0.00000000
Si       2.58442481      -2.57199554       0.15909367       0.00000000
Si       1.21409371       0.95729815      -3.48469377       0.00000000
Si      -2.74403424       0.13530474      -2.66391648       0.00000000
Si      -2.83030608      -2.61355133       0.08171178       0.00000000
Si       2.62428644       0.10510308       2.83601740       0.00000000
Si       2.77615812       2.69317685      -0.08150978       0.00000000
