10
Lattice="16.2900001489832 0.0 0.0 0.0 16.2900001489832 0.0 0.0 0.0 29.27583429601014" Properties=species:S:1:pos:R:3:initial_magmoms:R:1 pbc="T T T"
Si       0.90761365      -1.22931118      -0.76281114       0.00000000
Si      -1.17781588       0.90211642       0.89607474       0.00000000
Si      -2.19763505       1.82626931      -1.01654479       0.00000000
Si      -2.33295608      -0.92274966       1.82505551       0.00000000
Si       2.33495975       0.06013633      -2.10665976       0.00000000
Si       2.02197998      -2.35827335       0.97716880       0.00000000
Si      -0.05082480       2.30654738       2.46318087       0.00000000
Si      -0.46289664      -2.57388779      -2.13540863       0.00000000
Si       2.66359421      -0.42380325       2.41882798       0.00000000
Si      -0.45110268       2.82064350      -2.24431473       0.00000000
