10
Lattice="16.2900001489832 0.0 0.0 0.0 16.2900001489832 0.0 0.0 0.0 29.27583429601014" Properties=species:S:1:pos:R:3:initial_magmoms:R:1 pbc="T T T"
Si       1.39386527       1.75966211      -0.58012993       0.00000000
Si       1.44363122      -1.70248421      -0.67231953       0.00000000
Si      -1.91085448       0.03192840      -1.48809066       0.00000000
Si      -0.27023970      -0.73208890       2.30298350       0.00000000
H       -0.00546204       2.74499535       1.45000280       0.00000000
Si      -1.89254452      -2.07467813       1.35389023       0.00000000
Si      -0.29627601      -3.22338378      -0.06282594       0.00000000
Si      -0.38041060       3.10806361      -1.48203056       0.00000000
Si       2.51551323       2.07420572       1.47995198       0.00000000
Si      -1.24928174       3.31601524       0.76887124       0.00000000
