10
Lattice="16.2900001489832 0.0 0.0 0.0 16.2900001489832 0.0 0.0 0.0 29.27583429601014" Properties=species:S:1:pos:R:3:initial_magmoms:R:1 pbc="T T T"
Si       0.81490726      -2.21552147       0.15729906       0.00000000
Si       1.81597664       1.26770410       0.83351228       0.00000000
Si      -1.08732493       0.57117628      -2.07164586       0.00000000
Si      -1.87670576      -0.29133036       1.48753442       0.00000000
Si       0.60432643       2.09756558       2.71802701       0.00000000
Si      -2.96484519      -1.83723509       0.03636059       0.00000000
Si       0.65578654      -0.29607075      -3.51497377       0.00000000
Si      -1.22482882      -3.40843818       0.00796303       0.00000000
H        1.00538623       2.32424093      -2.65915330       0.00000000
Si      -3.23716512      -0.48612618      -1.90111413       0.00000000
