10
Lattice="16.2900001489832 0.0 0.0 0.0 16.2900001489832 0.0 0.0 0.0 29.27583429601014" Properties=species:S:1:pos:R:3:initial_magmoms:R:1 pbc="T T T"
Si       1.75842407       1.40629942      -0.74372329       0.00000000
Si      -1.45570699       1.04901085       1.55946514       0.00000000
Si       0.69074488      -2.03383910       1.13350175       0.00000000
Si      -1.34324083      -0.31092723      -2.03215276       0.00000000
Si      -1.67034404      -2.74967058       1.07597474       0.00000000
Si      -2.92584693      -0.78983695       1.83755629       0.00000000
Si      -1.65400517       3.20070810       0.56388184       0.00000000
Si       0.62820757       2.77193901      -2.33829016       0.00000000
Si      -0.30110436       1.07997814      -3.66187991       0.00000000
Si      -1.11602791      -2.58760136      -2.67370339       0.00000000
