10
Lattice="16.2900001489832 0.0 0.0 0.0 16.2900001489832 0.0 0.0 0.0 29.27583429601014" Properties=species:S:1:pos:R:3:initial_magmoms:R:1 pbc="T T T"
Si       1.77769188      -0.85353085      -1.30535090       0.00000000
Si      -0.72929027      -1.50886126       1.68464861       0.00000000
Si       0.80115361       1.56727395       1.69070871       0.00000000
Si      -1.53419547      -0.20942424      -1.91004326       0.00000000
H       -2.47124515       1.85742980       0.91926120       0.00000000
Si       1.07344259      -3.08570070      -1.10162037       0.00000000
Si      -1.90171417       2.04381835      -2.27420536       0.00000000
Si      -0.73787510      -3.51344352       0.33248565       0.00000000
Si       2.57542948       0.21887244       2.59260933       0.00000000
Si       1.18156421      -1.54078966       3.17273927       0.00000000
