10
Lattice="16.2900001489832 0.0 0.0 0.0 16.2900001489832 0.0 0.0 0.0 29.27583429601014" Properties=species:S:1:pos:R:3:initial_magmoms:R:1 pbc="T T T"
Si      -2.29920320       0.30503025       0.33465206       0.00000000
Si       1.22293918       1.08141166       1.71550534       0.00000000
Si      -0.02643867      -2.36379305       0.18232990       0.00000000
Si       0.57751309       0.58256299      -2.28796500       0.00000000
Si      -2.72126081       0.07486884      -1.99061035       0.00000000
Si       1.53930727      -2.58923036      -1.53387806       0.00000000
Si      -2.21534228       2.59569749       0.88969260       0.00000000
Si       3.41501934       0.41339133       0.80084045       0.00000000
Si       0.12046455      -2.53884539       2.54149373       0.00000000
Si       1.27612603      -0.62139835       3.31384879       0.00000000
