10
Lattice="16.2900001489832 0.0 0.0 0.0 16.2900001489832 0.0 0.0 0.0 29.27583429601014" Properties=species:S:1:pos:R:3:initial_magmoms:R:1 pbc="T T T"
H       -0.24394275      -1.12598729       1.00357560       0.00000000
Si      -1.60160023      -0.70886913      -1.55252677       0.00000000
Si      -0.89818174       1.70054407       1.35254354       0.00000000
Si       2.25062642      -0.63460465      -0.58797586       0.00000000
Si       2.51234156      -1.65680867       1.53717774       0.00000000
Si      -0.20139327      -2.62039476      -2.20660746       0.00000000
Si      -2.21328974       0.32522334       2.80131383       0.00000000
Si       0.63374617      -2.60335542       2.70193994       0.00000000
Si      -2.54514962       2.86329170       0.08973043       0.00000000
Si      -3.55817586      -1.58948210      -0.47078469       0.00000000
