10
Lattice="16.2900001489832 0.0 0.0 0.0 16.2900001489832 0.0 0.0 0.0 29.27583429601014" Properties=species:S:1:pos:R:3:initial_magmoms:R:1 pbc="T T T"
H       -1.01506249       0.98733691       0.57714380       0.00000000
Si      -1.29295360      -1.35163018      -1.41147580       0.00000000
Si       0.86736106      -0.92587474       2.00963965       0.00000000
Si       1.36927225       1.36715455      -1.38641568       0.00000000
Si       1.77556115       1.15815385       2.65748458       0.00000000
Si       0.14815755      -2.71784643      -2.64551077       0.00000000
Si      -2.57025251       0.00636939      -2.82664035       0.00000000
Si       2.83028979      -0.04642650      -2.58107465       0.00000000
Si      -3.03948597      -2.34600437      -0.18370586       0.00000000
Si       0.06020784       2.73917981      -2.75307018       0.00000000
