10
Lattice="16.2900001489832 0.0 0.0 0.0 16.2900001489832 0.0 0.0 0.0 29.27583429601014" Properties=species:S:1:pos:R:3:initial_magmoms:R:1 pbc="T T T"
Si       1.40323690       1.20083365       1.54008454       0.00000000
Si      -1.16351326       1.69927508      -1.27106890       0.00000000
Si      -1.42407181      -1.33983622       1.42942189       0.00000000
Si       1.07238700      -1.44805069      -1.63388431       0.00000000
H        1.79090633       2.62023023      -1.15156494       0.00000000
Si       2.64922643       2.59807583       0.11198007       0.00000000
Si      -2.69654888       0.48047355      -2.51473561       0.00000000
Si       3.31242492      -0.67248379      -1.78134669       0.00000000
Si      -2.92775286      -2.58898601       0.04116182       0.00000000
Si       0.08874792       2.57404808       2.96119209       0.00000000
