10
Lattice="16.2900001489832 0.0 0.0 0.0 16.2900001489832 0.0 0.0 0.0 29.27583429601014" Properties=species:S:1:pos:R:3:initial_magmoms:R:1 pbc="T T T"
Si       0.90407872       1.69430663       1.41585379       0.00000000
Si      -1.77914495      -0.94923460       1.27819297       0.00000000
Si      -0.68997925       0.92997982      -2.13236854       0.00000000
Si       1.64323748      -1.84015100       0.02074494       0.00000000
H       -2.19230822       0.70726294      -2.19507738       0.00000000
H       -2.30580065       2.17357472      -0.54412525       0.00000000
Si      -0.51825006      -2.37332270       2.70145522       0.00000000
Si       2.32319837       0.39762261       2.76830951       0.00000000
Si       3.51650604      -0.93300976       1.22069230       0.00000000
Si      -3.18340812      -2.22628916      -0.12337296       0.00000000
