10
Lattice="16.2900001489832 0.0 0.0 0.0 16.2900001489832 0.0 0.0 0.0 29.27583429601014" Properties=species:S:1:pos:R:3:initial_magmoms:R:1 pbc="T T T"
Si      -1.29875284      -1.39165471       1.33928159       0.00000000
Si      -1.43830927       1.33916833      -1.27147876       0.00000000
Si       1.36979353      -1.41864724      -1.28927847       0.00000000
Si       1.33170751       1.34115571       1.41285176       0.00000000
Si      -0.01413972       2.66740607      -2.58368899       0.00000000
Si       2.78153382      -0.01915704      -2.55836539       0.00000000
Si      -2.73585665       2.63015084       0.23666584       0.00000000
Si      -0.05991462      -2.79010236      -2.62521969       0.00000000
Si       2.64077192      -0.03086955       2.77950626       0.00000000
Si      -2.75566530      -0.03798828      -2.66639029       0.00000000
