10
Lattice="16.2900001489832 0.0 0.0 0.0 16.2900001489832 0.0 0.0 0.0 29.27583429601014" Properties=species:S:1:pos:R:3:initial_magmoms:R:1 pbc="T T T"
Si      -1.28122480       1.31541751      -1.41700893       0.00000000
Si       1.59101173      -1.36190917      -1.13941547       0.00000000
Si      -1.17923311      -1.70186519       1.22255884       0.00000000
Si       0.98960122       1.54831564       1.57301985       0.00000000
Si       1.76647133      -0.40783644       2.64788211       0.00000000
Si       2.50606991      -2.02426058       0.99924278       0.00000000
Si      -2.63754650       2.62353710      -0.04423579       0.00000000
Si      -3.45247005      -1.04404240       0.94394073       0.00000000
Si       0.16182486       2.66435984      -2.68111018       0.00000000
Si      -0.13916547      -1.69619627       3.37960231       0.00000000
