10
Lattice="16.2900001489832 0.0 0.0 0.0 16.2900001489832 0.0 0.0 0.0 29.27583429601014" Properties=species:S:1:pos:R:3:initial_magmoms:R:1 pbc="T T T"
Si       0.51963471       0.05216058       2.22437789       0.00000000
Si       1.53468091       1.29173185      -1.11617046       0.00000000
Si      -1.21132441      -1.58860081      -1.19351721       0.00000000
H        1.68124205      -1.85756501       0.74310850       0.00000000
Si       0.06141330       2.58426191      -2.43984803       0.00000000
Si      -2.68923467      -0.14307507      -2.36176938       0.00000000
Si       0.05049900       2.33271173       2.76706403       0.00000000
Si      -0.84330073      -1.48133116       3.37187349       0.00000000
Si       2.75651238      -0.10572210      -2.58710548       0.00000000
Si       0.12605202      -2.83853253      -2.66067565       0.00000000
