10
Lattice="16.2900001489832 0.0 0.0 0.0 16.2900001489832 0.0 0.0 0.0 29.27583429601014" Properties=species:S:1:pos:R:3:initial_magmoms:R:1 pbc="T T T"
Si      -1.37857384       1.27959580       1.39428503       0.00000000
Si       1.37073835      -1.41045337       1.27635904       0.00000000
Si       1.14767938       1.61865586      -1.25673281       0.00000000
Si      -1.40050018      -1.32659245      -1.35807287       0.00000000
H       -0.46258713      -2.32106438      -2.01075213       0.00000000
Si      -2.58442481       2.57199554      -0.15909367       0.00000000
Si      -0.66329623       3.36111573      -1.41128609       0.00000000
Si       2.76483657       0.32615838      -2.48721633       0.00000000
Si      -0.05343120      -2.73869112       2.58856927       0.00000000
Si       0.03986163       2.67709862       2.67692374       0.00000000
