10
Lattice="16.2900001489832 0.0 0.0 0.0 16.2900001489832 0.0 0.0 0.0 29.27583429601014" Properties=species:S:1:pos:R:3:initial_magmoms:R:1 pbc="T T T"
H       -0.94017736      -0.04113225      -1.15320439       0.00000000
H       -0.63545662       0.89031367       1.03153402       0.00000000
Si       0.24218343      -1.93411172       1.27297183       0.00000000
Si       2.06944904       0.93032191      -0.54242266       0.00000000
H       -1.94816999       2.10790973      -0.24954721       0.00000000
H        1.60907734      -1.61174890       1.81249618       0.00000000
H       -1.63238833      -1.03970926      -2.38214536       0.00000000
Si      -1.47299068      -1.70305436       2.82145853       0.00000000
Si       1.79712911       2.28143081      -2.47989737       0.00000000
Si       3.80946540      -0.64088119      -0.57082022       0.00000000
