10
Lattice="16.2900001489832 0.0 0.0 0.0 16.2900001489832 0.0 0.0 0.0 29.27583429601014" Properties=species:S:1:pos:R:3:initial_magmoms:R:1 pbc="T T T"
Si      -1.36689391      -0.32236281      -0.53952435       0.00000000
Si      -1.60907734       1.61174890      -1.81249618       0.00000000
Si       3.01666368      -0.37535418      -0.56467229       0.00000000
Si      -3.08206803      -0.09130545       1.00896235       0.00000000
Si      -1.64590904      -2.49209309      -1.40617687       0.00000000
Si       2.20038806       0.97086772      -2.38331639       0.00000000
H       -2.24453396       2.50206257      -0.78096216       0.00000000
Si       0.46037169       2.54207081      -2.35491883       0.00000000
Si       2.20116998      -2.65349441      -0.66543971       0.00000000
Si       3.16265466       1.03720060       1.47632177       0.00000000
