10
Lattice="16.2900001489832 0.0 0.0 0.0 16.2900001489832 0.0 0.0 0.0 29.27583429601014" Properties=species:S:1:pos:R:3:initial_magmoms:R:1 pbc="T T T"
Si       0.99500950       1.16810704      -0.01091989       0.00000000
Si      -2.19193355      -0.67961881       1.41023567       0.00000000
Si      -2.59089194      -0.67297249      -0.94607786       0.00000000
Si       0.67772917       1.54329832      -2.35029325       0.00000000
Si      -0.46755558      -2.40268868       1.56788487       0.00000000
Si       2.64197738       0.00535941       1.25189323       0.00000000
Si      -0.19908009       2.71233389       1.27478693       0.00000000
Si      -1.68275702       1.05699295      -2.35342577       0.00000000
Si      -1.40522428       1.20959767       2.65847411       0.00000000
Si       1.32686938      -1.36996132       2.70066351       0.00000000
