10
Lattice="16.2900001489832 0.0 0.0 0.0 16.2900001489832 0.0 0.0 0.0 29.27583429601014" Properties=species:S:1:pos:R:3:initial_magmoms:R:1 pbc="T T T"
Si      -1.44304966      -1.34894233       1.26410125       0.00000000
Si      -1.35400852       1.35159760      -1.36442953       0.00000000
Si       1.37051029       1.34457661       1.37259749       0.00000000
Si       1.39707928      -1.38251602      -1.30754659       0.00000000
H        0.46289664       2.57388779       2.13540863       0.00000000
Si      -0.16182486      -2.66435984       2.68111018       0.00000000
Si       2.76569994      -2.64137465       0.17782142       0.00000000
Si       0.04212594       2.70771731      -2.70982977       0.00000000
Si       0.03233565      -2.75525805      -2.67425964       0.00000000
Si       2.79785640       2.63402412       0.02874887       0.00000000
