10
Lattice="16.2900001489832 0.0 0.0 0.0 16.2900001489832 0.0 0.0 0.0 29.27583429601014" Properties=species:S:1:pos:R:3:initial_magmoms:R:1 pbc="T T T"
Si       1.35400852      -1.35159760       1.36442953       0.00000000
Si      -1.33157719      -1.32981787      -1.42137103       0.00000000
Si      -1.45702648       1.30232556       1.32865446       0.00000000
Si       1.39613446       1.35611971      -1.34540024       0.00000000
Si      -0.08904114      -2.70053993       2.62853078       0.00000000
Si      -2.75595852       2.61051162      -0.11660565       0.00000000
Si       0.00215028       2.62332859      -2.78237529       0.00000000
Si      -2.70127298      -2.71748153      -0.12410026       0.00000000
Si       0.04223997      -2.74245411      -2.68204701       0.00000000
Si       2.72451881      -0.00702099       2.73702702       0.00000000
