10
Lattice="16.2900001489832 0.0 0.0 0.0 16.2900001489832 0.0 0.0 0.0 29.27583429601014" Properties=species:S:1:pos:R:3:initial_magmoms:R:1 pbc="T T T"
Si      -1.12586707       1.39290904      -1.41481324       0.00000000
Si       1.27331438       1.44203968       1.30877617       0.00000000
Si       1.67878714      -1.51246135      -0.75680959       0.00000000
Si      -1.72387298      -0.61481719       1.53516620       0.00000000
Si       2.13967197      -1.85880305       1.59169783       0.00000000
Si      -2.13016187      -0.40581648      -2.50873407       0.00000000
Si       0.70197585       2.44446113      -2.42728870       0.00000000
Si       1.69958947       0.03429045       3.08813210       0.00000000
Si      -0.61770052      -0.32389407       3.59606783       0.00000000
Si      -0.19903122       3.15806088       1.94075361       0.00000000
