10
Lattice="16.2900001489832 0.0 0.0 0.0 16.2900001489832 0.0 0.0 0.0 29.27583429601014" Properties=species:S:1:pos:R:3:initial_magmoms:R:1 pbc="T T T"
Si      -1.50653179       1.20591613       1.37154356       0.00000000
Si      -1.04006764      -0.00566892      -2.15704347       0.00000000
Si       1.90563680       1.28835982      -0.73172020       0.00000000
Si       1.16638030      -2.12410199       0.44057203       0.00000000
Si       1.65705140      -2.39821382      -1.86372889       0.00000000
Si       2.64523538      -0.32806431      -2.38035954       0.00000000
Si      -0.57093193      -2.28622007      -2.69972961       0.00000000
Si      -0.07754040       1.70592140       3.30199207       0.00000000
H       -1.81586261      -2.07979319       2.52357692       0.00000000
Si       0.13916547       1.69619627      -3.37960231       0.00000000
