10
Lattice="16.2900001489832 0.0 0.0 0.0 16.2900001489832 0.0 0.0 0.0 29.27583429601014" Properties=species:S:1:pos:R:3:initial_magmoms:R:1 pbc="T T T"
Si       0.85832011      -0.02215440       1.26354501       0.00000000
Si      -2.12998268       0.68931136      -1.76214174       0.00000000
Si       2.53275293      -1.39380499       0.37025148       0.00000000
Si      -0.38766942      -1.41939658       2.69164948       0.00000000
Si      -2.95441959      -0.92095516      -0.11950396       0.00000000
Si       0.95708638       2.24727068       1.96868275       0.00000000
Si      -1.54626310       2.79248070      -0.70727488       0.00000000
Si      -0.27644130       0.35091918      -3.33738656       0.00000000
Si      -1.79090633      -2.62023023       1.15156494       0.00000000
Si       1.78782752       1.30044700      -2.61717176       0.00000000
