10
Lattice="16.2900001489832 0.0 0.0 0.0 16.2900001489832 0.0 0.0 0.0 29.27583429601014" Properties=species:S:1:pos:R:3:initial_magmoms:R:1 pbc="T T T"
Si      -0.05318685       1.70281001      -1.59834345       0.00000000
Si      -1.15566148      -1.91744705      -0.77235506       0.00000000
Si      -1.24113511       0.86379355       1.86279206       0.00000000
Si       2.15720327      -1.07181685       0.32897255       0.00000000
H       -2.22260762      -0.24441516       2.26981398       0.00000000
Si       1.27495315      -2.49971681       1.89157021       0.00000000
Si       2.13889331       1.03478968      -2.51300834       0.00000000
Si      -1.27612603       0.62139835      -3.31384879       0.00000000
Si       0.39030840       0.92776438       3.54767488       0.00000000
Si       0.07806168      -3.68958729       0.26116972       0.00000000
