10
Lattice="16.2900001489832 0.0 0.0 0.0 16.2900001489832 0.0 0.0 0.0 29.27583429601014" Properties=species:S:1:pos:R:3:initial_magmoms:R:1 pbc="T T T"
Si       1.12071487      -1.68298508       1.19685466       0.00000000
Si       1.43494050       0.92558803      -1.66474104       0.00000000
Si       0.10142154       1.48088808       1.88931597       0.00000000
H        2.67876020       0.35456814      -0.98360948       0.00000000
Si      -0.97521715      -2.46552410       2.13898028       0.00000000
H       -0.86086135       2.20156094      -2.53256460       0.00000000
Si      -2.60666066      -2.52949493       0.45409747       0.00000000
Si       1.79815375       2.99861436       1.22384698       0.00000000
Si      -1.41871240      -1.69047848      -3.00703804       0.00000000
Si      -3.11583720       0.07675848      -2.13971218       0.00000000
