10
Lattice="16.2900001489832 0.0 0.0 0.0 16.2900001489832 0.0 0.0 0.0 29.27583429601014" Properties=species:S:1:pos:R:3:initial_magmoms:R:1 pbc="T T T"
Si       1.37958708       1.29862252      -1.40375283       0.00000000
Si      -1.33472116      -1.33638274      -1.42471726       0.00000000
Si       1.35226842      -1.37512036       1.37122153       0.00000000
Si      -1.36300060       1.43661511       1.30160359       0.00000000
Si      -2.78454747       0.02393001       2.54649989       0.00000000
Si       2.64970699      -2.69847110      -0.12117268       0.00000000
Si       0.02531466       2.68677488      -2.69723238       0.00000000
Si       2.68396486       2.74051560      -0.04619727       0.00000000
Si       2.71316631      -0.00811242       2.76097466       0.00000000
Si      -0.01446552      -2.76167631       2.71849542       0.00000000
