10
Lattice="16.2900001489832 0.0 0.0 0.0 16.2900001489832 0.0 0.0 0.0 29.27583429601014" Properties=species:S:1:pos:R:3:initial_magmoms:R:1 pbc="T T T"
Si      -1.40693473       1.30310227       1.35245572       0.00000000
Si      -1.34765542      -1.37911141      -1.34071318       0.00000000
Si       1.30536935       1.35971002      -1.42392096       0.00000000
Si       1.36537080      -1.31870809       1.41715531       0.00000000
Si       2.62725937       2.66784590       0.05070575       0.00000000
Si      -0.04880484       2.61094493       2.73020575       0.00000000
Si      -2.70200603       0.03922632      -2.66768428       0.00000000
Si      -0.03023424      -2.62558964       2.77985757       0.00000000
Si       0.03238452      -2.80087005      -2.60969764       0.00000000
Si       2.56706782      -0.03583800      -2.86291604       0.00000000
