10
Lattice="16.2900001489832 0.0 0.0 0.0 16.2900001489832 0.0 0.0 0.0 29.27583429601014" Properties=species:S:1:pos:R:3:initial_magmoms:R:1 pbc="T T T"
Si      -1.33651306      -1.38489436       1.36387329       0.00000000
Si      -1.36862065       1.25885863      -1.48536800       0.00000000
Si       1.20247894       1.37616292       1.53499054       0.00000000
Si       1.34649883      -1.32515893      -1.48249897       0.00000000
Si       2.59625575       2.61895961      -0.00603082       0.00000000
Si       2.58784571      -0.16278597       2.77046003       0.00000000
Si      -2.62257599      -2.76583026      -0.15738689       0.00000000
Si      -2.76569994       2.64137465      -0.17782142       0.00000000
Si       2.74045760      -2.68503185      -0.18022204       0.00000000
Si      -2.92752480      -0.02298519       2.50328876       0.00000000
