10
Lattice="16.2900001489832 0.0 0.0 0.0 16.2900001489832 0.0 0.0 0.0 29.27583429601014" Properties=species:S:1:pos:R:3:initial_magmoms:R:1 pbc="T T T"
Si       2.24003792       0.77556691      -0.14746238       0.00000000
Si      -1.07238700       1.44805069       1.63388431       0.00000000
Si      -0.59168539       0.46876104      -2.34414533       0.00000000
Si      -0.25850601      -2.39673143       0.90260325       0.00000000
H        1.13318128      -2.04372713      -1.71556389       0.00000000
H        3.05569452      -0.45540324       0.20996628       0.00000000
H       -0.17953209      -0.82613107      -2.99664512       0.00000000
H        2.69684210      -1.00111825       2.43308531       0.00000000
Si      -2.23590026       3.14732577       0.36281541       0.00000000
Si      -2.49645881       0.10821447       3.06330620       0.00000000
