10
Lattice="16.2900001489832 0.0 0.0 0.0 16.2900001489832 0.0 0.0 0.0 29.27583429601014" Properties=species:S:1:pos:R:3:initial_magmoms:R:1 pbc="T T T"
Si      -1.72908578      -1.02697048      -1.19630105       0.00000000
Si      -1.32825403       1.32276756       1.44048230       0.00000000
Si       1.28461589      -1.44645427       1.36300380       0.00000000
Si       1.34474293       1.27034634      -1.53465680       0.00000000
Si       2.69248779       2.56878478      -0.07093827       0.00000000
Si      -3.44448795       0.67854367      -1.25730604       0.00000000
Si      -2.76297951       2.58190964       0.04908679       0.00000000
Si      -0.84124819      -1.77099995      -3.26807895       0.00000000
Si       2.54631436      -2.84200230      -0.07599128       0.00000000
Si       0.02458161       2.64873122       2.79163817       0.00000000
