10
Lattice="16.2900001489832 0.0 0.0 0.0 16.2900001489832 0.0 0.0 0.0 29.27583429601014" Properties=species:S:1:pos:R:3:initial_magmoms:R:1 pbc="T T T"
Si       0.46460709      -1.04839183      -2.01695860       0.00000000
Si      -2.17417745      -0.23120397       0.81773260       0.00000000
Si       1.39336516      -0.16141761       1.88694462       0.00000000
Si      -0.31741065       2.32692878      -0.33602803       0.00000000
Si      -2.35139636       2.10382094       0.79644907       0.00000000
Si       1.10304478       0.67417795      -3.43900298       0.00000000
Si       1.31616685       2.10963647       2.78884525       0.00000000
Si      -1.99474310      -1.40493106       2.85635532       0.00000000
Si      -0.15245811       2.63401157      -2.67742143       0.00000000
Si       0.28240344      -1.84080260       3.29976711       0.00000000
