10
Lattice="16.2900001489832 0.0 0.0 0.0 16.2900001489832 0.0 0.0 0.0 29.27583429601014" Properties=species:S:1:pos:R:3:initial_magmoms:R:1 pbc="T T T"
Si       1.30926315       1.74264394       0.82022105       0.00000000
Si       0.12335880      -1.23297382       1.98106643       0.00000000
Si      -2.15482493       0.41484114      -0.90474038       0.00000000
Si       1.47047877      -0.89013448      -1.73295374       0.00000000
Si       0.22510402       3.26866998      -0.61584645       0.00000000
Si      -1.45173223       2.38012052      -2.05955494       0.00000000
Si       3.35062497       0.50938830       0.85511784       0.00000000
Si       1.16141674      -3.19621206      -0.95210868       0.00000000
Si       2.46637118      -1.19145061       2.25535172       0.00000000
Si      -0.00850338      -3.37452240       1.17682999       0.00000000
