10
Lattice="16.2900001489832 0.0 0.0 0.0 16.2900001489832 0.0 0.0 0.0 29.27583429601014" Properties=species:S:1:pos:R:3:initial_magmoms:R:1 pbc="T T T"
Si       1.43683503       1.43079958      -1.25787721       0.00000000
Si      -1.22138023       1.29710755       1.59408089       0.00000000
Si       1.35861045      -1.39312081       1.41263805       0.00000000
Si      -1.59408240      -1.17848377      -1.41192665       0.00000000
Si      -2.57565265       2.68525991       0.30060134       0.00000000
Si       2.64550417       0.08107533      -2.76004954       0.00000000
Si      -2.74238080      -2.66853008       0.02549925       0.00000000
Si       2.77316890       2.71756298       0.19405194       0.00000000
Si       0.17929263       2.85910680      -2.63454404       0.00000000
Si       2.80050352      -2.75757123       0.08801487       0.00000000
