10
Lattice="16.2900001489832 0.0 0.0 0.0 16.2900001489832 0.0 0.0 0.0 29.27583429601014" Properties=species:S:1:pos:R:3:initial_magmoms:R:1 pbc="T T T"
Si       0.72929027       1.50886126      -1.68464861       0.00000000
Si      -0.00858483      -2.00458226      -1.35216296       0.00000000
Si       1.91085448      -0.03192840       1.48809066       0.00000000
Si      -2.19208016       0.66802033       0.91466489       0.00000000
Si       1.53044388       3.07613521       0.00606010       0.00000000
Si      -2.13889331      -1.03478968       2.51300834       0.00000000
Si      -3.41501934      -0.41339133      -0.80084045       0.00000000
Si       0.01830996      -2.10660653       2.84198089       0.00000000
Si       1.80273287      -1.57683943      -2.78626898       0.00000000
Si       3.30471975       1.72773371       0.90796072       0.00000000
