10
Lattice="16.2900001489832 0.0 0.0 0.0 16.2900001489832 0.0 0.0 0.0 29.27583429601014" Properties=species:S:1:pos:R:3:initial_magmoms:R:1 pbc="T T T"
Si       0.13688487      -2.20778372       0.59225013       0.00000000
Si      -1.13137309       1.54652374       1.36240950       0.00000000
Si      -1.10617246      -0.29092311      -2.06090163       0.00000000
Si       2.31728999       0.35818452      -0.50793573       0.00000000
Si       1.89101489       1.76593376      -2.28729166       0.00000000
Si       1.53376053      -1.93767923       2.41396819       0.00000000
Si       0.22113675       3.36813672       0.81931350       0.00000000
Si      -2.83042011       1.33599178      -1.82397230       0.00000000
Si       1.31993864      -3.19132506      -1.17782537       0.00000000
Si       0.61770052       0.32389407      -3.59606783       0.00000000
