10
Lattice="16.2900001489832 0.0 0.0 0.0 16.2900001489832 0.0 0.0 0.0 29.27583429601014" Properties=species:S:1:pos:R:3:initial_magmoms:R:1 pbc="T T T"
Si      -1.33633387      -1.28676340      -1.45192915       0.00000000
Si       1.38515500       1.27739665      -1.42233128       0.00000000
Si       1.32351364      -1.37332846       1.39463048       0.00000000
Si      -1.42389262       1.39224115       1.28318031       0.00000000
Si       2.62619237      -2.70304859      -0.03956043       0.00000000
Si      -0.02199150       2.71725347       2.66826394       0.00000000
Si      -2.59387627       0.14154381      -2.82859598       0.00000000
Si      -2.69017135       0.02143764       2.75758451       0.00000000
Si       2.83030608       2.61355133      -0.08171178       0.00000000
Si      -0.06237441      -2.76972357       2.69188954       0.00000000
