10
Lattice="16.2900001489832 0.0 0.0 0.0 16.2900001489832 0.0 0.0 0.0 29.27583429601014" Properties=species:S:1:pos:R:3:initial_magmoms:R:1 pbc="T T T"
Si      -1.30437778      -1.44189307      -1.35755557       0.00000000
Si       1.34293947      -1.40307400       1.36246805       0.00000000
Si       1.26627873       1.37080351      -1.47440420       0.00000000
Si      -1.32566392       1.42842124       1.37581783       0.00000000
Si      -2.65865020      -0.05374071      -2.65103512       0.00000000
Si       2.66817985       2.69581583      -0.08932057       0.00000000
Si       2.62779694      -2.79116121      -0.06569497       0.00000000
Si      -2.68396486      -2.74051560       0.04619727       0.00000000
Si      -2.69103472       2.74712934      -0.04133748       0.00000000
Si       2.69017135      -0.02143764      -2.75758451       0.00000000
