10
Lattice="16.2900001489832 0.0 0.0 0.0 16.2900001489832 0.0 0.0 0.0 29.27583429601014" Properties=species:S:1:pos:R:3:initial_magmoms:R:1 pbc="T T T"
Si      -0.05929560       1.00210054      -1.12050328       0.00000000
H        0.10772577       1.19376868       2.15452575       0.00000000
Si       1.35092971       2.79346298      -0.52008520       0.00000000
Si      -2.28511235       1.72120630      -1.33008898       0.00000000
Si      -0.45012528      -2.69827074       1.68005230       0.00000000
Si       2.47124515      -1.85742980      -0.91926120       0.00000000
Si       0.56953099       0.18638855      -3.19346656       0.00000000
Si      -1.33175638       1.34710645       2.64814559       0.00000000
Si       3.27239876      -0.29015585       0.77144751       0.00000000
Si      -2.14725008      -0.93103378       2.54737817       0.00000000
