10
Lattice="16.2900001489832 0.0 0.0 0.0 16.2900001489832 0.0 0.0 0.0 29.27583429601014" Properties=species:S:1:pos:R:3:initial_magmoms:R:1 pbc="T T T"
Si       1.31268079      -2.00060750       0.13481522       0.00000000
H       -2.17199459       1.05257836      -0.19693854       0.00000000
Si      -1.02851803       0.72958024       2.08888933       0.00000000
Si       1.64302571       1.73099171       0.62339962       0.00000000
Si      -0.30146274       1.05016744      -2.24525156       0.00000000
Si       3.02371725      -0.33067071       0.39551652       0.00000000
H       -2.53084700       0.50686335       2.02618049       0.00000000
Si      -0.29494674       3.04170141       1.67080114       0.00000000
Si      -2.98765119       2.28354851      -0.55436720       0.00000000
H       -1.84997387      -3.03780810      -1.34150655       0.00000000
