10
Lattice="16.2900001489832 0.0 0.0 0.0 16.2900001489832 0.0 0.0 0.0 29.27583429601014" Properties=species:S:1:pos:R:3:initial_magmoms:R:1 pbc="T T T"
Si       0.94612858       1.73837108       1.29522146       0.00000000
Si      -1.26832752       1.29241603      -1.52611997       0.00000000
Si       1.48906288      -1.32208012      -1.35289485       0.00000000
Si      -1.39377681      -1.24279669       1.54102137       0.00000000
Si      -2.59625575      -2.61895961       0.00603082       0.00000000
Si      -2.56409929       2.65643916      -0.14304173       0.00000000
Si      -0.74709639       3.51272513       1.12782224       0.00000000
Si       2.75869084       2.69974808      -0.01059785       0.00000000
Si       0.14584812      -2.63723699      -2.83917041       0.00000000
Si       1.38983886       0.86752396       3.55423266       0.00000000
