10
Lattice="10.86 0.0 0.0 0.0 10.86 0.0 0.0 0.0 10.86" Properties=species:S:1:pos:R:3:initial_magmoms:R:1 pbc="T T T"
Si      -1.24207992       1.50833454      -1.12766982       0.00000000
Si      -1.24207992      -1.20666546       1.58733018       0.00000000
Si       1.75685478      -1.09636044      -1.49205540       0.00000000
Si       1.47292008       1.50833454       1.58733018       0.00000000
Si       0.01067538      -2.34739986      -2.20471032       0.00000000
Si      -2.59957992       0.15083454      -2.48516982       0.00000000
Si      -2.59957992      -2.56416546       0.22983018       0.00000000
Si       0.32104332       2.75614854      -2.43638670       0.00000000
Si       2.92150290      -2.52797994       0.07932144       0.00000000
Si      -2.59957992       2.86583454       0.22983018       0.00000000
