10
Lattice="10.86 0.0 0.0 0.0 10.86 0.0 0.0 0.0 10.86" Properties=species:S:1:pos:R:3:initial_magmoms:R:1 pbc="T T T"
Si       1.46021388       1.40456724       1.23364170       0.00000000
Si      -1.25478612       1.40456724      -1.48135830       0.00000000
Si       1.46021388      -1.31043276      -1.48135830       0.00000000
Si       0.05976258      -2.72933520       2.58235596       0.00000000
Si       0.10271388       2.76206724       2.59114170       0.00000000
Si      -2.61228612       2.76206724      -0.12385830       0.00000000
Si      -2.67891222      -0.09884772       2.70415086       0.00000000
Si       2.81771388       0.04706724       2.59114170       0.00000000
Si       2.81771388      -2.66793276      -0.12385830       0.00000000
Si      -2.64014202       0.11107608      -2.85221610       0.00000000
