10
Lattice="10.86 0.0 0.0 0.0 10.86 0.0 0.0 0.0 10.86" Properties=species:S:1:pos:R:3:initial_magmoms:R:1 pbc="T T T"
Si      -0.87318744       1.19003880       1.63297476       0.00000000
Si      -1.11135810      -1.61342676      -1.16048874       0.00000000
Si       1.56873786      -1.36393998       1.32543042       0.00000000
Si       0.27051174       2.25699036      -2.22096774       0.00000000
Si      -2.30429652      -0.18293670      -2.44608468       0.00000000
Si      -2.30429652       2.53206330       0.26891532       0.00000000
Si      -2.30429652      -2.89793670       0.26891532       0.00000000
Si      -2.30429652      -0.18293670       2.98391532       0.00000000
Si       0.41070348      -2.89793670      -2.44608468       0.00000000
Si       0.41070348       2.53206330       2.98391532       0.00000000
