10
Lattice="10.86 0.0 0.0 0.0 10.86 0.0 0.0 0.0 10.86" Properties=species:S:1:pos:R:3:initial_magmoms:R:1 pbc="T T T"
Si       1.40445864      -1.08115644      -1.23573768       0.00000000
Si      -1.31054136      -1.08115644       1.47926232       0.00000000
Si       1.40445864       1.63384356       1.47926232       0.00000000
Si       0.04695864      -2.43865644      -2.59323768       0.00000000
Si      -2.66804136      -2.43865644       0.12176232       0.00000000
Si      -2.63226852       0.38653998      -2.49182700       0.00000000
Si       2.76195864      -2.43865644       0.12176232       0.00000000
Si       0.04695864      -2.43865644       2.83676232       0.00000000
Si       2.76195864       0.27634356      -2.59323768       0.00000000
Si      -2.86750698       0.45284028       2.53577742       0.00000000
