10
Lattice="10.86 0.0 0.0 0.0 10.86 0.0 0.0 0.0 10.86" Properties=species:S:1:pos:R:3:initial_magmoms:R:1 pbc="T T T"
Si      -1.26503796       1.38392238      -1.22094636       0.00000000
Si       1.30977030      -1.60615056      -0.99582942       0.00000000
Si      -1.26503796      -1.33107762       1.49405364       0.00000000
Si       1.44996204       1.38392238       1.49405364       0.00000000
Si       2.79141096      -0.15437490      -2.30824956       0.00000000
Si      -2.62253796       0.02642238      -2.57844636       0.00000000
Si      -2.62253796      -2.68857762       0.13655364       0.00000000
Si       0.09246204       2.74142238      -2.57844636       0.00000000
Si      -2.62253796       2.74142238       0.13655364       0.00000000
Si      -2.62253796       0.02642238       2.85155364       0.00000000
