10
Lattice="10.86 0.0 0.0 0.0 10.86 0.0 0.0 0.0 10.86" Properties=species:S:1:pos:R:3:initial_magmoms:R:1 pbc="T T T"
Si       1.20123546       1.32550644       1.27914510       0.00000000
Si      -1.51376454      -1.38949356       1.27914510       0.00000000
Si      -1.51376454       1.32550644      -1.43585490       0.00000000
Si       2.55873546      -0.03199356       2.63664510       0.00000000
Si       2.55873546       2.68300644      -0.07835490       0.00000000
Si      -0.15626454       2.68300644       2.63664510       0.00000000
Si      -0.15626454      -2.74699356       2.63664510       0.00000000
Si       2.59504044      -0.24028836      -2.81733378       0.00000000
Si      -0.15626454       2.68300644      -2.79335490       0.00000000
Si      -2.87126454      -0.03199356       2.63664510       0.00000000
