10
Lattice="10.86 0.0 0.0 0.0 10.86 0.0 0.0 0.0 10.86" Properties=species:S:1:pos:R:3:initial_magmoms:R:1 pbc="T T T"
Si       1.23954954      -1.34989800      -1.36209378       0.00000000
Si       1.23954954       1.36510200       1.35290622       0.00000000
Si      -1.45320918       1.18452192      -1.38886368       0.00000000
Si      -1.47545046      -1.34989800       1.35290622       0.00000000
Si       2.59484496      -0.20399424      -2.61578304       0.00000000
Si       2.59704954      -2.70739800      -0.00459378       0.00000000
Si       2.59704954       0.00760200       2.71040622       0.00000000
Si      -0.00248694       3.01594146      -2.23691022       0.00000000
Si       2.66735718       2.68308246       0.08023368       0.00000000
Si      -0.11795046      -2.70739800       2.71040622       0.00000000
