10
Lattice="10.86 0.0 0.0 0.0 10.86 0.0 0.0 0.0 10.86" Properties=species:S:1:pos:R:3:initial_magmoms:R:1 pbc="T T T"
Si      -1.49916870       1.21327920      -1.11254184       0.00000000
Si       1.21583130      -1.50172080      -1.11254184       0.00000000
Si       1.21583130       1.21327920       1.60245816       0.00000000
Si      -0.14166870       2.57077920      -2.47004184       0.00000000
Si       2.57333130      -0.14422080      -2.47004184       0.00000000
Si       2.57333130       2.57077920       0.24495816       0.00000000
Si      -2.85666870      -0.14422080      -2.47004184       0.00000000
Si      -0.14166870      -2.85922080      -2.47004184       0.00000000
Si      -3.02311992       2.36709990       0.23852904       0.00000000
Si       2.57333130      -2.85922080       0.24495816       0.00000000
