10
Lattice="10.86 0.0 0.0 0.0 10.86 0.0 0.0 0.0 10.86" Properties=species:S:1:pos:R:3:initial_magmoms:R:1 pbc="T T T"
Si       1.46649096       1.19235198       1.18464138       0.00000000
Si      -1.24850904      -1.52264802       1.18464138       0.00000000
Si      -1.24850904       1.19235198      -1.53035862       0.00000000
Si       1.26936024      -1.73157270      -1.21845942       0.00000000
Si       0.10899096       2.54985198       2.54214138       0.00000000
Si      -2.60600904      -0.16514802       2.54214138       0.00000000
Si      -2.60600904       2.54985198      -0.17285862       0.00000000
Si       2.78952132      -0.24357894       2.38168488       0.00000000
Si      -0.02337072      -2.64869970      -2.73475434       0.00000000
Si       2.82399096       2.54985198      -0.17285862       0.00000000
