10
Lattice="10.86 0.0 0.0 0.0 10.86 0.0 0.0 0.0 10.86" Properties=species:S:1:pos:R:3:initial_magmoms:R:1 pbc="T T T"
Si      -1.32303036       1.43593092      -1.19704350       0.00000000
Si      -1.32303036      -1.27906908       1.51795650       0.00000000
Si       1.39196964       1.43593092       1.51795650       0.00000000
Si       2.70061050       0.25259274      -2.47053054       0.00000000
Si      -2.78952132       0.24357894      -2.38168488       0.00000000
Si       0.03446964       2.79343092      -2.55454350       0.00000000
Si      -2.50222002      -2.88109284       0.11214036       0.00000000
Si       2.81347848      -2.60499906       0.21045594       0.00000000
Si      -2.68053036       2.79343092       0.16045650       0.00000000
Si       0.03446964      -2.63656908       2.87545650       0.00000000
