10
Lattice="10.86 0.0 0.0 0.0 10.86 0.0 0.0 0.0 10.86" Properties=species:S:1:pos:R:3:initial_magmoms:R:1 pbc="T T T"
Si       1.26515742      -1.21095516      -1.21071624       0.00000000
Si       1.21273620       1.58953476       1.32788478       0.00000000
Si      -1.44984258       1.50404484      -1.21071624       0.00000000
Si      -1.44984258      -1.21095516       1.50428376       0.00000000
Si       1.28459682       3.22850424      -0.76510872       0.00000000
Si      -0.09234258      -2.56845516      -2.56821624       0.00000000
Si       2.68452684       0.08127624      -2.48658162       0.00000000
Si       2.62265742      -2.56845516       0.14678376       0.00000000
Si      -0.26116128       2.78272296      -2.57906538       0.00000000
Si      -2.80734258       0.14654484      -2.56821624       0.00000000
