10
Lattice="10.86 0.0 0.0 0.0 10.86 0.0 0.0 0.0 10.86" Properties=species:S:1:pos:R:3:initial_magmoms:R:1 pbc="T T T"
Si       1.59209772      -1.03922598      -1.21787298       0.00000000
Si      -1.12290228       1.67577402      -1.21787298       0.00000000
Si       1.59209772       1.67577402       1.49712702       0.00000000
Si      -1.10346288      -2.02976658       1.94273454       0.00000000
Si       0.23459772      -2.39672598      -2.57537298       0.00000000
Si      -2.37104208       0.20916360       2.64391044       0.00000000
Si      -2.48040228       0.31827402      -2.57537298       0.00000000
Si      -2.64922098      -2.47554786       0.12877788       0.00000000
Si       2.88073446      -2.41183224       0.09626304       0.00000000
Si      -2.48040228       3.03327402       0.13962702       0.00000000
