10
Lattice="10.86 0.0 0.0 0.0 10.86 0.0 0.0 0.0 10.86" Properties=species:S:1:pos:R:3:initial_magmoms:R:1 pbc="T T T"
Si      -0.95677686      -1.71086268       1.53194418       0.00000000
Si       1.75822314       1.00413732       1.53194418       0.00000000
Si       1.75822314      -1.71086268      -1.18305582       0.00000000
Si      -0.91004628       1.96686546      -1.67639304       0.00000000
Si      -2.09486142      -0.22842924      -2.54041464       0.00000000
Si      -2.35204794       2.44608468       0.19529538       0.00000000
Si      -2.31427686      -0.35336268       2.88944418       0.00000000
Si       0.40072314       2.36163732       2.88944418       0.00000000
Si      -2.31427686      -3.06836268       0.17444418       0.00000000
Si       3.02393442       2.50091682      -0.03136368       0.00000000
