10
Lattice="10.86 0.0 0.0 0.0 10.86 0.0 0.0 0.0 10.86" Properties=species:S:1:pos:R:3:initial_magmoms:R:1 pbc="T T T"
Si       1.18090554       1.07297886       1.39122030       0.00000000
Si      -1.53409446       1.07297886      -1.32377970       0.00000000
Si      -1.53409446      -1.64202114       1.39122030       0.00000000
Si       2.25965106      -0.07174116      -2.38847238       0.00000000
Si       2.53840554       2.43047886       0.03372030       0.00000000
Si      -0.17659446       2.43047886      -2.68127970       0.00000000
Si      -0.17659446       2.43047886       2.74872030       0.00000000
Si       2.53840554      -0.28452114       2.74872030       0.00000000
Si       2.44661682      -2.86024164      -0.17208756       0.00000000
Si      -2.89159446       2.43047886       0.03372030       0.00000000
