10
Lattice="10.86 0.0 0.0 0.0 10.86 0.0 0.0 0.0 10.86" Properties=species:S:1:pos:R:3:initial_magmoms:R:1 pbc="T T T"
Si      -1.36611198      -1.03974726       1.27217298       0.00000000
Si       1.34888802      -1.03974726      -1.44282702       0.00000000
Si       1.38550794       1.57167006       1.18183950       0.00000000
Si      -1.36611198       1.67525274      -1.44282702       0.00000000
Si       2.51486106      -2.41745772      -0.14944446       0.00000000
Si      -0.39410940      -2.41803330       2.62114788       0.00000000
Si      -2.72361198      -2.39724726      -0.08532702       0.00000000
Si      -0.00861198      -2.39724726      -2.80032702       0.00000000
Si      -2.72361198       0.31775274       2.62967298       0.00000000
Si       0.14857566       2.77147200       2.61962748       0.00000000
