10
Lattice="10.86 0.0 0.0 0.0 10.86 0.0 0.0 0.0 10.86" Properties=species:S:1:pos:R:3:initial_magmoms:R:1 pbc="T T T"
Si      -1.49482470      -1.02310974       1.15809954       0.00000000
Si       1.22017530      -1.02310974      -1.55690046       0.00000000
Si       1.22017530       1.69189026       1.15809954       0.00000000
Si      -0.13732470      -2.38060974       2.51559954       0.00000000
Si       2.57767530      -2.38060974      -0.19940046       0.00000000
Si       2.57767530       0.33439026       2.51559954       0.00000000
Si      -2.74576638      -2.38978644      -0.25692588       0.00000000
Si      -2.85232470       0.33439026       2.51559954       0.00000000
Si       0.04741476      -2.28668160      -3.10283232       0.00000000
Si       2.57767530       0.33439026      -2.91440046       0.00000000
