10
Lattice="16.28999089631971 0.0 0.0 0.0 16.28999089631971 0.0 0.0 0.0 34.25627252547053" Properties=species:S:1:pos:R:3:initial_magmoms:R:1 pbc="T T T"
Si      -1.35534429       1.35547135       1.35425398       0.00000000
Si       1.35883035       1.35504781      -1.35846750       0.00000000
Si      -1.35560493      -1.35985861      -1.35819345       0.00000000
Si       1.36174626      -1.36158924       1.35901560       0.00000000
Si      -2.69203001       0.00258359       2.70210203       0.00000000
Si      -2.71380486       2.71161385      -0.00085641       0.00000000
Si       0.00074934       2.71329172      -2.71597583       0.00000000
Si       2.71751409       2.71202110      -0.00123323       0.00000000
Si      -2.71401011      -0.00167787      -2.71628414       0.00000000
Si      -2.71434731      -2.71633536      -0.00184984       0.00000000
