10
Lattice="16.28999089631971 0.0 0.0 0.0 16.28999089631971 0.0 0.0 0.0 34.25627252547053" Properties=species:S:1:pos:R:3:initial_magmoms:R:1 pbc="T T T"
Si       1.29529202      -1.32138290      -1.38299501       0.00000000
Si       1.20082794       1.32993189       1.58037976       0.00000000
Si      -0.76915338      -1.98076626       1.12884758       0.00000000
Si      -1.44572595       1.38583917      -1.34274386       0.00000000
Si      -0.93374754       1.33985250       2.90716019       0.00000000
Si      -0.70785411      -1.13071008       3.33755624       0.00000000
Si       2.50165774       2.72517039       0.06864961       0.00000000
Si       2.71763056      -2.62278530      -0.03709956       0.00000000
Si       2.63197774       0.03150486      -2.73084306       0.00000000
Si      -0.08485935      -2.68504903      -2.72587590       0.00000000
