10
Lattice="16.28999089631971 0.0 0.0 0.0 16.28999089631971 0.0 0.0 0.0 34.25627252547053" Properties=species:S:1:pos:R:3:initial_magmoms:R:1 pbc="T T T"
Si      -1.40564781       1.15512390       1.44314906       0.00000000
Si       1.51785333      -1.61782930       0.78008427       0.00000000
Si       1.87556544       1.54833192      -0.31303399       0.00000000
Si      -1.69964973      -1.08002537      -1.72192676       0.00000000
Si       0.19363923       2.38428585      -1.93599432       0.00000000
Si      -0.07783362      -2.78400077      -1.97453265       0.00000000
Si      -1.38681657       3.11419188      -0.23578606       0.00000000
Si      -0.09405846      -3.20368004       1.32852750       0.00000000
Si      -1.07654094       0.79118901      -3.21642599       0.00000000
Si      -2.03478390      -0.72028353       2.85892733       0.00000000
