10
Lattice="16.28999089631971 0.0 0.0 0.0 16.28999089631971 0.0 0.0 0.0 34.25627252547053" Properties=species:S:1:pos:R:3:initial_magmoms:R:1 pbc="T T T"
Si      -1.61191179      -1.58585074       0.54844323       0.00000000
Si      -1.51785333       1.61782930      -0.78008427       0.00000000
Si       1.48880826       0.18836876       1.92071602       0.00000000
Si       1.77165153       1.16573618      -2.35405811       0.00000000
Si       0.35771211       3.16616122      -1.09311827       0.00000000
Si      -1.59568695      -1.16617147      -2.75461693       0.00000000
Si       3.41554059      -0.77840431       0.93992413       0.00000000
Si      -0.76949073      -3.17938741       2.12416413       0.00000000
Si       1.74197115       2.39945608       2.55411485       0.00000000
Si       0.15662835      -0.04873137      -3.92052981       0.00000000
