10
Lattice="16.28999089631971 0.0 0.0 0.0 16.28999089631971 0.0 0.0 0.0 34.25627252547053" Properties=species:S:1:pos:R:3:initial_magmoms:R:1 pbc="T T T"
Si       1.76800257      -0.49420276       1.42317764       0.00000000
Si      -1.54468296       1.25861916       1.25367751       0.00000000
Si      -0.37242198      -2.18252021      -0.91830841       0.00000000
Si       0.62913609       1.87540743      -1.41577828       0.00000000
Si       1.88626797       1.78064850       2.08202890       0.00000000
Si      -3.45871398       0.21187914       0.27452992       0.00000000
Si       1.94072544      -2.48339651      -1.53039983       0.00000000
Si      -2.85397542       0.42808980      -2.03033615       0.00000000
Si       0.61369317      -1.99344218       2.87160216       0.00000000
Si       2.03478390       0.72028353      -2.85892733       0.00000000
