10
Lattice="16.28999089631971 0.0 0.0 0.0 16.28999089631971 0.0 0.0 0.0 34.25627252547053" Properties=species:S:1:pos:R:3:initial_magmoms:R:1 pbc="T T T"
Si      -0.91469979       2.20268493       0.43652792       0.00000000
Si       1.58045580      -0.72990603      -1.70020827       0.00000000
Si      -0.01883124      -1.95906798       1.67893511       0.00000000
Si      -2.36794698      -1.19221623       0.41737866       0.00000000
Si      -1.58483781       2.30611014      -1.81767309       0.00000000
Si       1.38681657      -3.11419188       0.23578606       0.00000000
Si       1.32581052      -0.76815495       3.21012284       0.00000000
Si       3.26238201      -1.56585996      -0.07724794       0.00000000
Si      -3.12569262       0.36281088       2.09001061       0.00000000
Si       0.31027563      -2.32300287      -2.98063994       0.00000000
