10
Lattice="16.28999089631971 0.0 0.0 0.0 16.28999089631971 0.0 0.0 0.0 34.25627252547053" Properties=species:S:1:pos:R:3:initial_magmoms:R:1 pbc="T T T"
Si       1.32869385       1.22764698      -1.49354006       0.00000000
Si      -1.27018017      -1.59309684      -1.28043167       0.00000000
Si      -1.58045580       0.72990603       1.70020827       0.00000000
Si       1.68192621      -0.83595393       1.62296033       0.00000000
Si      -0.19363923      -2.38428585       1.93599432       0.00000000
Si       3.12386814       2.06027775      -0.20348237       0.00000000
Si       0.02438613       2.64119544      -2.82669216       0.00000000
Si      -2.67773391      -0.10427229      -2.79983523       0.00000000
Si      -1.59928704      -1.22916195       3.37914338       0.00000000
Si       2.73887028      -0.10529856      -2.83607839       0.00000000
