10
Lattice="16.28999089631971 0.0 0.0 0.0 16.28999089631971 0.0 0.0 0.0 34.25627252547053" Properties=species:S:1:pos:R:3:initial_magmoms:R:1 pbc="T T T"
Si      -0.35530119       2.11201479      -0.86870530       0.00000000
Si      -1.70338014      -1.13435415       1.09106289       0.00000000
Si       0.55789992      -1.31186628      -1.85826680       0.00000000
Si       1.47792654       0.53102142       1.76224641       0.00000000
Si       2.79893151      -1.51106040      -1.42218420       0.00000000
Si      -0.39682440      -2.77378301       2.15191173       0.00000000
Si       1.16436033      -1.28954898       3.19278915       0.00000000
Si       0.48288447       2.46428604       2.67603299       0.00000000
Si      -0.52589007       1.86494436      -3.15962906       0.00000000
Si      -2.68480377       0.45468648       2.57069490       0.00000000
