10
Lattice="16.28999089631971 0.0 0.0 0.0 16.28999089631971 0.0 0.0 0.0 34.25627252547053" Properties=species:S:1:pos:R:3:initial_magmoms:R:1 pbc="T T T"
Si       2.32078743      -0.14131575      -0.28809541       0.00000000
Si      -0.42108021      -2.31883263      -0.54261966       0.00000000
Si      -0.73039473       1.39079133      -1.84391341       0.00000000
Si      -0.93937914       0.38867940       2.22131498       0.00000000
Si      -2.88282664      -0.71763966       1.33239846       0.00000000
Si       1.91096361      -0.52924581      -2.63413755       0.00000000
Si      -0.42914376      -0.40322637      -3.29566080       0.00000000
Si       2.88394902       2.03493051       0.47821783       0.00000000
Si      -2.09375370      -2.91012705       1.00144843       0.00000000
Si       1.24108623       3.53633094      -0.29141827       0.00000000
