10
Lattice="16.28999089631971 0.0 0.0 0.0 16.28999089631971 0.0 0.0 0.0 34.25627252547053" Properties=species:S:1:pos:R:3:initial_magmoms:R:1 pbc="T T T"
Si      -1.34713413      -1.34926812      -1.36037215       0.00000000
Si      -1.35397593       1.35844983       1.35377439       0.00000000
Si       1.35778779      -1.35534429       1.35466505       0.00000000
Si       1.38867363       1.33490034      -1.34998907       0.00000000
Si       0.01373247       2.61099445      -2.71965495       0.00000000
Si      -2.71155195      -2.71336014      -0.00709105       0.00000000
Si      -2.71373481       0.00079821       2.71203636       0.00000000
Si       0.00128691      -2.71423980       2.71217338       0.00000000
Si       0.00122175       2.71594440       2.71203636       0.00000000
Si       2.71596654       0.00087966       2.71234466       0.00000000
