10
Lattice="16.28999089631971 0.0 0.0 0.0 16.28999089631971 0.0 0.0 0.0 34.25627252547053" Properties=species:S:1:pos:R:3:initial_magmoms:R:1 pbc="T T T"
Si      -1.25664225       1.33533365       1.52657340       0.00000000
Si      -1.95055224      -1.01740987      -1.07789135       0.00000000
Si       0.57684845       1.83310718      -1.54077405       0.00000000
Si       1.44251534      -1.37087483       1.50971588       0.00000000
Si      -2.55349401       2.68611674       0.05406671       0.00000000
Si      -2.61526569      -0.02162009       2.89587617       0.00000000
Si       0.77949605       0.91433489      -3.72495520       0.00000000
Si       2.79049655      -2.76105467       0.13453131       0.00000000
Si      -3.59927943       0.94828325      -1.31553893       0.00000000
Si      -2.72579334      -2.85139901       0.26359874       0.00000000
