10
Lattice="16.28999089631971 0.0 0.0 0.0 16.28999089631971 0.0 0.0 0.0 34.25627252547053" Properties=species:S:1:pos:R:3:initial_magmoms:R:1 pbc="T T T"
Si      -1.62181611       1.70397540       0.25260589       0.00000000
Si      -1.02120381      -1.70913051      -1.29118815       0.00000000
Si       1.75231530       1.11744010      -1.16591289       0.00000000
Si      -0.01622484      -0.41967927       3.30306016       0.00000000
Si       1.59568695       1.16617147       2.75461693       0.00000000
Si       0.07783362       2.78400077       1.97453265       0.00000000
Si       0.32953041       2.36301830      -2.77643818       0.00000000
Si      -2.40039666      -0.36587340      -2.78698912       0.00000000
Si      -2.09533383      -3.25412298       0.16528661       0.00000000
Si      -0.99870732       3.57518978      -1.24189334       0.00000000
