10
Lattice="16.28999089631971 0.0 0.0 0.0 16.28999089631971 0.0 0.0 0.0 34.25627252547053" Properties=species:S:1:pos:R:3:initial_magmoms:R:1 pbc="T T T"
Si      -1.55044962      -1.13603202       1.34397850       0.00000000
Si      -0.22314042       1.85166054      -1.42632922       0.00000000
Si       1.19765709       1.49791504       1.38977916       0.00000000
Si       1.01038725      -1.67163093      -1.38289224       0.00000000
Si      -1.72004481       1.03952910      -2.99256113       0.00000000
Si      -0.16320951      -2.46234753       2.74906196       0.00000000
Si       3.26749707       1.23855381      -1.30526748       0.00000000
Si       2.57259825       0.22182093       2.75944505       0.00000000
Si       2.64849336      -2.70107748       0.00061661       0.00000000
Si       2.20348314       3.08103263      -0.22153544       0.00000000
