10
Lattice="16.28999089631971 0.0 0.0 0.0 16.28999089631971 0.0 0.0 0.0 34.25627252547053" Properties=species:S:1:pos:R:3:initial_magmoms:R:1 pbc="T T T"
Si      -2.02123062       1.09647990       0.23609436       0.00000000
Si       1.78911441       0.56485575       1.37223853       0.00000000
Si       0.15131781      -0.10699272      -2.36817170       0.00000000
Si      -0.06289569      -2.17859365       0.96356097       0.00000000
Si      -0.94622094      -0.00663003       3.12102222       0.00000000
Si       1.90058688      -1.63514133       2.15362454       0.00000000
Si      -3.25474200      -0.70169175      -0.58283655       0.00000000
Si       3.32439804       0.57259350      -0.44238575       0.00000000
Si      -2.08743318      -0.78123582      -2.62567624       0.00000000
Si      -1.53818325       2.92465773      -1.11175369       0.00000000
