10
Lattice="16.28999089631971 0.0 0.0 0.0 16.28999089631971 0.0 0.0 0.0 34.25627252547053" Properties=species:S:1:pos:R:3:initial_magmoms:R:1 pbc="T T T"
Si       0.03438819       0.26858952       2.36604781       0.00000000
Si      -1.35894438       1.82962764      -0.70605643       0.00000000
Si      -1.07750205      -2.26405750      -0.52706730       0.00000000
Si       2.30197248       0.66222108       2.04297672       0.00000000
Si       0.88332525      -2.17196362      -2.15746125       0.00000000
Si       0.94622094       0.00663003      -3.12102222       0.00000000
Si      -1.07500968       1.10310993      -2.88492786       0.00000000
Si       2.73533535       0.57148578      -1.74878369       0.00000000
Si       2.84680782      -1.62851130      -0.96739768       0.00000000
Si       2.71451673       2.07689355       0.16073052       0.00000000
