10
Lattice="16.28999089631971 0.0 0.0 0.0 16.28999089631971 0.0 0.0 0.0 34.25627252547053" Properties=species:S:1:pos:R:3:initial_magmoms:R:1 pbc="T T T"
Si       1.35027810       1.33400439      -1.36592510       0.00000000
Si      -1.35817875       1.35433431       1.35668618       0.00000000
Si       1.35710361      -1.35769005       1.35589828       0.00000000
Si      -1.36524861      -1.34926812      -1.38563617       0.00000000
Si      -0.02966409       2.70563868      -2.70851823       0.00000000
Si      -0.00042354       2.71371852       2.71333809       0.00000000
Si       2.71489140      -0.00125433       2.71344086       0.00000000
Si      -2.71518462      -0.00123804       2.71316681       0.00000000
Si      -2.71533123      -2.71345788      -0.00428204       0.00000000
Si       0.00021177      -2.71655298       2.71333809       0.00000000
