10
Lattice="16.28999089631971 0.0 0.0 0.0 16.28999089631971 0.0 0.0 0.0 34.25627252547053" Properties=species:S:1:pos:R:3:initial_magmoms:R:1 pbc="T T T"
Si      -0.83321721      -1.84976208      -1.19492797       0.00000000
Si       1.84687875       0.87596217      -1.26237860       0.00000000
Si      -1.76062320       1.64261844      -0.05230936       0.00000000
Si      -2.14562106      -0.52295787      -2.68490537       0.00000000
Si       0.57565602       2.22071796      -2.69244176       0.00000000
Si      -1.78862571      -3.25403827       0.51319351       0.00000000
Si      -0.74585394       3.50559171      -1.19759996       0.00000000
Si       2.93179275       2.50530426       0.08379089       0.00000000
Si      -3.20256513      -1.25361324       1.77413335       0.00000000
Si      -3.55579749       0.80998767      -1.34236705       0.00000000
