10
Lattice="16.28999089631971 0.0 0.0 0.0 16.28999089631971 0.0 0.0 0.0 34.25627252547053" Properties=species:S:1:pos:R:3:initial_magmoms:R:1 pbc="T T T"
Si      -2.18051424      -0.08190612       0.90131729       0.00000000
Si       1.14031629      -1.64631627       1.26117963       0.00000000
Si       1.48191759       1.83008376       0.41463815       0.00000000
Si      -0.24394275      -0.87961113      -2.38605348       0.00000000
Si       3.56114061       0.78351642      -0.11955446       0.00000000
Si      -0.02699253      -1.56677220       3.30401933       0.00000000
Si      -3.52515600      -1.27281915      -0.62987043       0.00000000
Si       3.37906728      -0.97207317       1.51868418       0.00000000
Si      -2.11950819      -2.42794305      -2.07301949       0.00000000
Si       1.68956622       2.05957728       2.77510219       0.00000000
