10
Lattice="16.28999089631971 0.0 0.0 0.0 16.28999089631971 0.0 0.0 0.0 34.25627252547053" Properties=species:S:1:pos:R:3:initial_magmoms:R:1 pbc="T T T"
Si      -1.03156425      -0.25500366      -2.08339915       0.00000000
Si      -1.46295603       1.25983602       1.33435107       0.00000000
Si       0.54234297      -1.95613578       1.21424851       0.00000000
Si       2.11147722       1.28135511      -0.89748059       0.00000000
Si       3.08265444      -0.05637969       0.73431787       0.00000000
Si      -0.06232554       1.65863151       3.28274617       0.00000000
Si       2.27071197       1.10141577       2.70813114       0.00000000
Si       0.25842456      -1.76959899      -3.41288583       0.00000000
Si      -1.89856692       3.37976775       0.20063910       0.00000000
Si       1.91671398       3.46270014       0.23595734       0.00000000
