10
Lattice="16.28999089631971 0.0 0.0 0.0 16.28999089631971 0.0 0.0 0.0 34.25627252547053" Properties=species:S:1:pos:R:3:initial_magmoms:R:1 pbc="T T T"
Si       1.35164646       1.35602847      -1.33582752       0.00000000
Si       1.35435060      -1.35627282       1.35737130       0.00000000
Si      -1.35995436       1.35640314       1.35668618       0.00000000
Si      -1.36700793      -1.37961639      -1.36452059       0.00000000
Si       2.58968646      -0.03968244      -2.70942603       0.00000000
Si      -0.02715543       2.68509699      -2.65431108       0.00000000
Si       2.71083519       2.71529865       0.00253497       0.00000000
Si       2.71235016       0.00030951       2.71535922       0.00000000
Si      -0.00239463      -2.71487511       2.71484537       0.00000000
Si       2.71336014      -2.71642266      -0.00400799       0.00000000
