10
Lattice="16.28999089631971 0.0 0.0 0.0 16.28999089631971 0.0 0.0 0.0 34.25627252547053" Properties=species:S:1:pos:R:3:initial_magmoms:R:1 pbc="T T T"
Si      -0.20264760       0.91877229       2.18418116       0.00000000
Si      -1.82760931      -1.13078664      -1.03402616       0.00000000
Si       1.84140531      -1.49982845      -0.47705312       0.00000000
Si       0.28704609       1.93833081      -1.60031692       0.00000000
Si       2.07345636       1.23487974       1.62436484       0.00000000
Si      -1.71419507       0.89871930      -2.23995040       0.00000000
Si       3.33830970      -0.68769701       1.08917879       0.00000000
Si      -0.90945441      -3.19416668      -1.76437030       0.00000000
Si      -0.77949605      -0.91433489       3.72495520       0.00000000
Si       3.24218241      -0.81660793      -2.21898555       0.00000000
