10
Lattice="16.28999089631971 0.0 0.0 0.0 16.28999089631971 0.0 0.0 0.0 34.25627252547053" Properties=species:S:1:pos:R:3:initial_magmoms:R:1 pbc="T T T"
Si       1.35755973      -1.35731538      -1.35702874       0.00000000
Si       1.35775521       1.35661491       1.35757684       0.00000000
Si      -1.35780408       1.35769005      -1.35706299       0.00000000
Si      -1.35685926      -1.35907470       1.35737130       0.00000000
Si      -0.00074934       2.71334858      -2.71395471       0.00000000
Si       2.71482624      -0.00022806      -2.71364640       0.00000000
Si       2.71523349       2.71447981      -0.00010277       0.00000000
Si      -2.71544526      -2.71446786      -0.00006851       0.00000000
Si       2.71505430      -2.71490769      -0.00010277       0.00000000
Si      -2.71508688       2.71515481       0.00037682       0.00000000
