10
Lattice="16.28999089631971 0.0 0.0 0.0 16.28999089631971 0.0 0.0 0.0 34.25627252547053" Properties=species:S:1:pos:R:3:initial_magmoms:R:1 pbc="T T T"
Si      -1.26678045       1.35679410      -1.42502063       0.00000000
Si       1.33576371       1.36264221       1.37797646       0.00000000
Si      -1.37561394      -1.35509994       1.37989481       0.00000000
Si       1.65454272      -1.16962200      -1.40680656       0.00000000
Si      -2.31333150      -0.20427660      -2.80908241       0.00000000
Si       0.63280134       2.05553736      -2.97919916       0.00000000
Si       2.69663031       2.72792340       0.01057492       0.00000000
Si       2.69381214       0.00710244       2.73640971       0.00000000
Si       2.70945054      -2.72274318       0.00502197       0.00000000
Si      -2.73092309      -2.70738171       0.00802282       0.00000000
