10
Lattice="16.28999089631971 0.0 0.0 0.0 16.28999089631971 0.0 0.0 0.0 34.25627252547053" Properties=species:S:1:pos:R:3:initial_magmoms:R:1 pbc="T T T"
Si      -1.35729909       1.35674523      -1.36199590       0.00000000
Si      -1.36467846      -1.34767170       1.36799075       0.00000000
Si       1.35861858      -1.35931905      -1.36281805       0.00000000
Si       1.34244261       1.37583711       1.38302926       0.00000000
Si       2.67458994      -0.03477915       2.73605002       0.00000000
Si      -2.71158453       2.71294116      -0.00253497       0.00000000
Si       2.71598283       2.71313208       0.00082215       0.00000000
Si       2.71831230      -2.71547784      -0.00465886       0.00000000
Si      -2.71961550      -2.71453302      -0.00421352       0.00000000
Si       0.00039096       2.71491046      -2.71981253       0.00000000
