10
Lattice="16.28999089631971 0.0 0.0 0.0 16.28999089631971 0.0 0.0 0.0 34.25627252547053" Properties=species:S:1:pos:R:3:initial_magmoms:R:1 pbc="T T T"
Si      -0.06129927      -0.85005618      -2.20870866       0.00000000
Si       2.29137488      -0.06828279       0.89806294       0.00000000
Si      -1.67690889      -1.36740215       1.19626396       0.00000000
Si      -0.22589343       2.47056258      -0.43039605       0.00000000
Si       0.43758198       2.89776783       1.83140987       0.00000000
Si       1.90868205       2.46064197      -1.75717648       0.00000000
Si       0.70785411       1.13071008      -3.33755624       0.00000000
Si       1.68663632      -0.28449345       3.20292901       0.00000000
Si      -0.03051117       1.27559334       3.47406756       0.00000000
Si      -1.98420345       0.07756158       3.12520149       0.00000000
