10
Lattice="16.28999089631971 0.0 0.0 0.0 16.28999089631971 0.0 0.0 0.0 34.25627252547053" Properties=species:S:1:pos:R:3:initial_magmoms:R:1 pbc="T T T"
Si      -1.95369228      -1.19803176      -0.34886607       0.00000000
Si       1.71714749      -1.56008678      -0.27113855       0.00000000
Si       0.46809315       1.62217449      -1.64265770       0.00000000
Si      -0.40768983       1.08377370       2.11289381       0.00000000
Si      -1.33307586      -2.72076623       1.47959775       0.00000000
Si      -1.24152606       3.09174426      -1.10329239       0.00000000
Si      -1.16380647       3.13839882       1.21387170       0.00000000
Si      -3.58077006       0.40418748       0.18710787       0.00000000
Si       0.03051117      -1.27559334      -3.47406756       0.00000000
Si       2.32188605      -1.34387613      -2.57600462       0.00000000
