10
Lattice="16.28999089631971 0.0 0.0 0.0 16.28999089631971 0.0 0.0 0.0 34.25627252547053" Properties=species:S:1:pos:R:3:initial_magmoms:R:1 pbc="T T T"
Si       1.35527913       1.35697329       1.38769154       0.00000000
Si      -1.36115982      -1.35601218       1.38844518       0.00000000
Si      -1.48501269       1.26462528      -1.44521128       0.00000000
Si       1.42008075      -1.36306575      -1.45178849       0.00000000
Si      -2.72508894       2.69377956       0.02717894       0.00000000
Si       2.71534752       2.71052568       0.01020837       0.00000000
Si      -2.71476108      -2.71531494       0.02097513       0.00000000
Si       2.71693251      -2.71384884       0.02071821       0.00000000
Si       2.71305230       0.00122175       2.74780335       0.00000000
Si      -0.00475668      -2.71570590       2.74859124       0.00000000
