10
Lattice="16.28999089631971 0.0 0.0 0.0 16.28999089631971 0.0 0.0 0.0 34.25627252547053" Properties=species:S:1:pos:R:3:initial_magmoms:R:1 pbc="T T T"
Si       1.35708732       1.35612621       1.35702874       0.00000000
Si      -1.35747828       1.35698958      -1.35696023       0.00000000
Si       1.35809730      -1.35868374      -1.35761110       0.00000000
Si      -1.35845568      -1.35822762       1.35819345       0.00000000
Si      -2.71456560       2.71419093       0.00003426       0.00000000
Si      -0.00198738       2.71355562       2.71522219       0.00000000
Si       2.71477884       2.71427238       0.00010277       0.00000000
Si      -2.71526607       0.00055386      -2.71450281       0.00000000
Si      -0.00073305       2.71559187      -2.71443430       0.00000000
Si      -2.71363707       0.00242721       2.71672947       0.00000000
