10
Lattice="16.28999089631971 0.0 0.0 0.0 16.28999089631971 0.0 0.0 0.0 34.25627252547053" Properties=species:S:1:pos:R:3:initial_magmoms:R:1 pbc="T T T"
Si      -1.35720135      -1.35702216      -1.35795366       0.00000000
Si      -1.35518139       1.36065483       1.35853602       0.00000000
Si       1.35845568       1.35822762      -1.35819345       0.00000000
Si       1.35982404      -1.35759231       1.36000904       0.00000000
Si      -2.71370223      -0.00008145      -2.71525645       0.00000000
Si      -2.71485882       2.71425609      -0.00116471       0.00000000
Si       2.71554300       2.71435383      -0.00116471       0.00000000
Si      -2.71588509      -2.71430170      -0.00089066       0.00000000
Si       0.00114030      -2.71506570      -2.71522219       0.00000000
Si       0.00097740       2.71521720      -2.71515368       0.00000000
