10
Lattice="16.28999089631971 0.0 0.0 0.0 16.28999089631971 0.0 0.0 0.0 34.25627252547053" Properties=species:S:1:pos:R:3:initial_magmoms:R:1 pbc="T T T"
Si       1.70961921      -1.46956977      -0.53936531       0.00000000
Si       0.07771959       0.04665456       2.31716408       0.00000000
Si       0.74158596       2.13172569      -0.68104933       0.00000000
Si      -2.15717067      -0.93196719      -0.34783839       0.00000000
Si      -1.69608222       2.01435624      -0.29357642       0.00000000
Si       1.24152606      -3.09174426       1.10329239       0.00000000
Si       1.04614380      -1.89677502      -2.80117123       0.00000000
Si       1.94062006       1.31520573       2.87996070       0.00000000
Si      -1.83627396       1.29614643       3.00485914       0.00000000
Si       1.74495222       3.07788147       1.28539883       0.00000000
