10
Lattice="16.28999089631971 0.0 0.0 0.0 16.28999089631971 0.0 0.0 0.0 34.25627252547053" Properties=species:S:1:pos:R:3:initial_magmoms:R:1 pbc="T T T"
Si      -0.07771959      -0.04665456      -2.31716408       0.00000000
Si       1.86290047       1.26855117       0.56279662       0.00000000
Si       0.75611664      -2.05462512       0.89902212       0.00000000
Si      -1.91399355       1.24949187       0.68769506       0.00000000
Si      -0.77916699      -2.06236287       2.71364640       0.00000000
Si       1.16380647      -3.13839882      -1.21387170       0.00000000
Si       1.36607940       1.74773781       2.82936415       0.00000000
Si       1.66723263       3.03122691      -1.03176525       0.00000000
Si      -2.23489026      -0.97862175      -2.66500247       0.00000000
Si      -0.91686636       2.39031315       2.56261041       0.00000000
