10
Lattice="16.28999089631971 0.0 0.0 0.0 16.28999089631971 0.0 0.0 0.0 34.25627252547053" Properties=species:S:1:pos:R:3:initial_magmoms:R:1 pbc="T T T"
Si       0.67013802      -0.10342521       2.25420102       0.00000000
Si      -0.99896796      -1.78833249      -1.28491924       0.00000000
Si       1.86885396       1.04534559      -1.27495066       0.00000000
Si      -1.82695608       1.76928948       0.06193538       0.00000000
Si       1.58483781      -2.30611014       1.81767309       0.00000000
Si      -2.24656367      -0.41456421      -2.72227899       0.00000000
Si       0.48734793       2.32567443      -2.70189649       0.00000000
Si      -0.83321721       3.63871359      -1.13419156       0.00000000
Si      -3.59109496       0.91554687      -1.28663206       0.00000000
Si      -1.14222222       0.37721124       3.73705311       0.00000000
