10
Lattice="16.28999089631971 0.0 0.0 0.0 16.28999089631971 0.0 0.0 0.0 34.25627252547053" Properties=species:S:1:pos:R:3:initial_magmoms:R:1 pbc="T T T"
Si      -1.35698958       1.35728280       1.35637787       0.00000000
Si       1.35701046       1.35619137      -1.35833048       0.00000000
Si       1.35751233      -1.35790182       1.35654915       0.00000000
Si      -1.35799956      -1.35658233      -1.35798791       0.00000000
Si      -2.71235016      -0.00030951      -2.71535922       0.00000000
Si      -0.00151497       2.71498914      -2.71282425       0.00000000
Si       2.71477315       0.00006516       2.71364640       0.00000000
Si      -0.00052128       2.71570590       2.71347512       0.00000000
Si      -2.71559187      -0.00058644       2.71361214       0.00000000
Si      -2.71448415       2.71487511      -0.00054810       0.00000000
