10
Lattice="16.28999089631971 0.0 0.0 0.0 16.28999089631971 0.0 0.0 0.0 34.25627252547053" Properties=species:S:1:pos:R:3:initial_magmoms:R:1 pbc="T T T"
Si      -1.36285398      -1.34457660       1.35596679       0.00000000
Si      -1.35633798       1.35803214      -1.35805643       0.00000000
Si       1.35907470      -1.35742941      -1.35819345       0.00000000
Si       1.37137365       1.36782243       1.37782231       0.00000000
Si      -2.71164969      -2.71112841       0.00150728       0.00000000
Si      -2.70995553       2.71557558       0.00034256       0.00000000
Si      -2.71257822       0.00063531      -2.71518793       0.00000000
Si       2.71757935      -2.71059084       0.00184984       0.00000000
Si       0.00198738      -2.71355562      -2.71522219       0.00000000
Si       0.00226431       2.71590138      -2.71529070       0.00000000
