10
Lattice="16.28999089631971 0.0 0.0 0.0 16.28999089631971 0.0 0.0 0.0 34.25627252547053" Properties=species:S:1:pos:R:3:initial_magmoms:R:1 pbc="T T T"
Si      -1.81047060      -0.85455711      -1.35764535       0.00000000
Si       0.77929731       1.86859332      -1.43684590       0.00000000
Si      -0.97218720       0.33342372       2.30305049       0.00000000
Si       1.86717609      -1.85484456      -0.07625451       0.00000000
Si       1.00030374       2.48777622       2.14413555       0.00000000
Si      -0.48896064      -2.13943086      -2.85248715       0.00000000
Si       2.24526699       0.57296817      -2.83063164       0.00000000
Si       0.78226209      -3.48418665      -1.42242400       0.00000000
Si      -2.82523986      -2.71753038      -0.21235475       0.00000000
Si       3.58449433      -0.82624509      -1.41296926       0.00000000
