10
Lattice="16.28999089631971 0.0 0.0 0.0 16.28999089631971 0.0 0.0 0.0 34.25627252547053" Properties=species:S:1:pos:R:3:initial_magmoms:R:1 pbc="T T T"
Si       0.89500518      -2.15337510      -0.25997100       0.00000000
Si      -2.22974262      -0.09901062       0.75319308       0.00000000
Si       0.15731253       0.97635744      -2.14598539       0.00000000
Si       1.47201068       1.00196532       1.60449619       0.00000000
Si      -1.80388944      -0.40034304       3.02959218       0.00000000
Si      -0.21149307       3.24206838      -1.48192718       0.00000000
Si       0.02728575       1.53736875       3.37088761       0.00000000
Si       3.23972981      -1.84513572      -0.51329627       0.00000000
Si      -0.10836108      -3.09953088      -2.22641916       0.00000000
Si       2.12997681       0.09141948      -3.28870677       0.00000000
