10
Lattice="16.28999089631971 0.0 0.0 0.0 16.28999089631971 0.0 0.0 0.0 34.25627252547053" Properties=species:S:1:pos:R:3:initial_magmoms:R:1 pbc="T T T"
Si       1.34453128      -1.33011108      -1.43564693       0.00000000
Si       1.76413888       0.85374261       1.34856743       0.00000000
Si      -1.33922734       1.39921326      -1.41766237       0.00000000
Si      -1.71731824      -1.02859947       1.33671476       0.00000000
Si       2.59212700      -2.70387936       0.00171281       0.00000000
Si       0.84906767       0.71687403       3.66343634       0.00000000
Si      -2.80223224      -2.65794156      -0.00945474       0.00000000
Si       0.00697835      -2.67920001      -2.79363484       0.00000000
Si       2.75787775       2.72316672       0.15244050       0.00000000
Si      -2.80519702       2.69483841      -0.02387664       0.00000000
