10
Lattice="16.28999089631971 0.0 0.0 0.0 16.28999089631971 0.0 0.0 0.0 34.25627252547053" Properties=species:S:1:pos:R:3:initial_magmoms:R:1 pbc="T T T"
Si       1.90189008      -0.71483778       1.16402879       0.00000000
Si      -0.87513138      -1.57666023      -1.51436789       0.00000000
Si      -1.62896742       0.05119947       1.72679115       0.00000000
Si       0.61954128       1.95465339      -1.22596417       0.00000000
Si       1.01216286      -1.66022793      -2.94641790       0.00000000
Si      -0.53660889       3.62499741      -0.06957453       0.00000000
Si      -3.42493992       1.13153598       0.79402658       0.00000000
Si       1.10755710      -2.58160662       2.41914506       0.00000000
Si       2.91009514       2.34222507      -0.96962434       0.00000000
Si       2.58022590       0.98240103       2.71176230       0.00000000
