10
Lattice="16.28999089631971 0.0 0.0 0.0 16.28999089631971 0.0 0.0 0.0 34.25627252547053" Properties=species:S:1:pos:R:3:initial_magmoms:R:1 pbc="T T T"
Si      -1.86290047      -1.26855117      -0.56279662       0.00000000
Si      -0.49682107       0.47918664       2.26656754       0.00000000
Si       1.89429747      -1.38787542       0.32283129       0.00000000
Si      -0.19566784       1.76267574      -1.59456186       0.00000000
Si       2.14905678       2.07091512      -1.84788714       0.00000000
Si      -1.10678383      -3.32317629       0.33622550       0.00000000
Si      -2.77976683       1.12176198       1.99981380       0.00000000
Si       0.94277414      -3.19130874       1.46305196       0.00000000
Si       3.42490587      -0.01366731       1.39173036       0.00000000
Si      -1.94062006      -1.31520573      -2.87996070       0.00000000
