10
Lattice="16.28999089631971 0.0 0.0 0.0 16.28999089631971 0.0 0.0 0.0 34.25627252547053" Properties=species:S:1:pos:R:3:initial_magmoms:R:1 pbc="T T T"
Si      -1.53060840      -1.37420811      -1.06889907       0.00000000
Si       2.02492845      -0.96071904      -0.64247675       0.00000000
Si       0.52300674      -0.48242835       2.24073829       0.00000000
Si      -0.19474695       2.09758185      -1.09267294       0.00000000
Si       2.10574314       2.29382748      -1.58534692       0.00000000
Si       3.41073504       0.84281202      -0.20783292       0.00000000
Si       1.85433957      -1.20778947      -2.93340051       0.00000000
Si      -3.42490587       0.01366731      -1.39173036       0.00000000
Si      -0.28411389      -2.46163077      -2.76592150       0.00000000
Si      -0.30457413      -2.61804735       2.79692345       0.00000000
