10
Lattice="16.28999089631971 0.0 0.0 0.0 16.28999089631971 0.0 0.0 0.0 34.25627252547053" Properties=species:S:1:pos:R:3:initial_magmoms:R:1 pbc="T T T"
Si       0.78907294      -2.19248739      -0.33095003       0.00000000
Si       1.94344750       1.10631906       0.88891651       0.00000000
Si      -1.47941268       0.36952236       1.87697073       0.00000000
Si      -1.12641766       1.00724328      -2.02601986       0.00000000
Si       2.88282664       0.71763966      -1.33239846       0.00000000
Si      -3.36433039       0.05458779       0.54186602       0.00000000
Si       2.46174643      -1.60119297      -1.87501812       0.00000000
Si      -1.21216822      -3.23209890      -0.97058351       0.00000000
Si      -3.03652672       1.87662429      -0.97435170       0.00000000
Si      -0.99621332       2.85464331       2.18229706       0.00000000
