10
Lattice="16.28999089631971 0.0 0.0 0.0 16.28999089631971 0.0 0.0 0.0 34.25627252547053" Properties=species:S:1:pos:R:3:initial_magmoms:R:1 pbc="T T T"
Si      -1.35399059       1.35834165      -1.35582977       0.00000000
Si      -1.35573036      -1.35812988       1.35685746       0.00000000
Si       1.35785295       1.35711990       1.35713151       0.00000000
Si       1.35713619      -1.35980775      -1.35860453       0.00000000
Si      -0.00715131       2.68385895      -2.73336775       0.00000000
Si      -2.71343082      -2.71476108      -0.00147302       0.00000000
Si       0.00022806      -2.71466334       2.71409173       0.00000000
Si      -2.71470163      -0.00017919       2.71433153       0.00000000
Si      -2.71520350       2.71391400      -0.00054810       0.00000000
Si       2.71526607       0.00011403       2.71436578       0.00000000
