10
Lattice="16.28999089631971 0.0 0.0 0.0 16.28999089631971 0.0 0.0 0.0 34.25627252547053" Properties=species:S:1:pos:R:3:initial_magmoms:R:1 pbc="T T T"
Si      -1.76413888      -0.85374261      -1.34856743       0.00000000
Si       0.99373887       1.86942411      -1.19612694       0.00000000
Si      -0.91507120      -0.13686858       2.31486891       0.00000000
Si       1.82695608      -1.76928948      -0.06193538       0.00000000
Si      -0.67363711       2.27651121       2.54949025       0.00000000
Si      -0.41960759      -2.18385369      -2.78421436       0.00000000
Si       2.31430401       0.55638495      -2.76383187       0.00000000
Si       2.49709410      -1.87271469       2.19226564       0.00000000
Si       0.82798812      -3.55762197      -1.34685462       0.00000000
Si      -3.48145712      -1.88234208      -0.01185268       0.00000000
