10
Lattice="16.28999089631971 0.0 0.0 0.0 16.28999089631971 0.0 0.0 0.0 34.25627252547053" Properties=species:S:1:pos:R:3:initial_magmoms:R:1 pbc="T T T"
Si      -1.29032601      -1.33245684       1.48631198       0.00000000
Si      -1.57533422       1.23628068      -1.29413419       0.00000000
Si       1.27348704      -1.59782094      -1.26498208       0.00000000
Si       1.09099017       1.88061534       1.11398035       0.00000000
Si      -3.02005916       1.77168411       0.47225724       0.00000000
Si      -3.10711292       0.05409909       1.93243167       0.00000000
Si      -0.28339713       3.05158941      -2.04373036       0.00000000
Si       0.19238490      -1.61082036      -3.41192665       0.00000000
Si       3.35476260       1.16447436       1.31026890       0.00000000
Si       1.46823399      -3.69540279      -0.17230915       0.00000000
