10
Lattice="16.28999089631971 0.0 0.0 0.0 16.28999089631971 0.0 0.0 0.0 34.54679606040008" Properties=species:S:1:pos:R:3:initial_magmoms:R:1 pbc="T T T"
Si       1.57420207      -0.89365311       1.49159330       0.00000000
Si      -1.26630871       2.05876278       0.02038262       0.00000000
Si      -1.56786919      -1.81838754       0.30729392       0.00000000
Si       0.32711297       0.60198066      -2.34517601       0.00000000
Si      -1.34274139       2.35343259      -2.43769239       0.00000000
Si      -3.55404373       1.17656154       0.49277577       0.00000000
Si       0.25140683       3.70232604       0.92920569       0.00000000
Si      -0.05451937      -3.82869476       0.11390085       0.00000000
Si       3.16697311       0.69364449       2.11264140       0.00000000
Si      -0.43406890      -1.14362316      -3.68835620       0.00000000
