10
Lattice="16.28999089631971 0.0 0.0 0.0 16.28999089631971 0.0 0.0 0.0 34.54679606040008" Properties=species:S:1:pos:R:3:initial_magmoms:R:1 pbc="T T T"
Si      -1.05487524      -1.64687585       1.28832951       0.00000000
Si       1.71918144       1.18572776       1.24288318       0.00000000
Si       0.50797107      -1.18029767      -2.13720284       0.00000000
Si      -1.58109111       2.02038501      -0.09862982       0.00000000
Si      -1.29603240       2.03452473      -2.43465092       0.00000000
Si      -2.23717086      -0.08172693       2.63777994       0.00000000
Si       0.50448501       2.63973081       2.66077085       0.00000000
Si       2.87964846      -1.26041189      -2.10379607       0.00000000
Si      -0.05154156       0.42875264      -3.78550050       0.00000000
Si       0.50674932      -2.78784374       2.63336486       0.00000000
