10
Lattice="16.28999089631971 0.0 0.0 0.0 16.28999089631971 0.0 0.0 0.0 34.54679606040008" Properties=species:S:1:pos:R:3:initial_magmoms:R:1 pbc="T T T"
Si      -1.35752715      -1.35579670      -1.35641161       0.00000000
Si       1.35633798      -1.35332826       1.36339007       0.00000000
Si       1.35785295       1.35907796      -1.35648071       0.00000000
Si      -1.35371529       1.35924086       1.36263004       0.00000000
Si       0.00071676      -2.71341294      -2.71354871       0.00000000
Si      -2.71461936      -2.71325004       0.00058730       0.00000000
Si      -2.71501032       0.00147587      -2.71347961       0.00000000
Si       2.71536381       0.00144492      -2.71375599       0.00000000
Si       2.71334385       2.71585577       0.00127823       0.00000000
Si       0.00019548       2.71644221      -2.71385963       0.00000000
