10
Lattice="16.28999089631971 0.0 0.0 0.0 16.28999089631971 0.0 0.0 0.0 34.54679606040008" Properties=species:S:1:pos:R:3:initial_magmoms:R:1 pbc="T T T"
Si       1.53573975      -1.64488275      -0.46527651       0.00000000
Si      -0.58054302       0.65446704      -2.13502774       0.00000000
Si       1.23082353       1.60956603       1.18778861       0.00000000
Si      -1.99927170      -0.57686148       1.09219757       0.00000000
Si       2.09733750       0.08513154       2.74021885       0.00000000
Si      -2.70155966       1.66316013       1.45359180       0.00000000
Si      -0.65049228       2.61373050       2.22643861       0.00000000
Si       2.79083538      -1.76531472       1.47818914       0.00000000
Si      -2.17331406      -0.93283056      -2.75607584       0.00000000
Si       2.83146264      -0.67970025      -2.21901104       0.00000000
