10
Lattice="16.28999089631971 0.0 0.0 0.0 16.28999089631971 0.0 0.0 0.0 34.54679606040008" Properties=species:S:1:pos:R:3:initial_magmoms:R:1 pbc="T T T"
Si       0.69115212       2.16588501       0.49806144       0.00000000
Si      -1.91501982      -0.78850916       1.20716937       0.00000000
Si       2.05164405      -1.22586308       0.20686633       0.00000000
Si       0.36373941       0.22056253      -2.40103821       0.00000000
Si      -1.18677537      -0.12026078       3.40693784       0.00000000
Si       1.22326497       0.06718501       3.41142892       0.00000000
Si       1.47181779      -3.15950237      -1.01553818       0.00000000
Si       1.94624775       2.04545304       2.44152708       0.00000000
Si       2.66359419       1.18390100      -2.46353340       0.00000000
Si      -2.14783650      -3.08644172       0.68741253       0.00000000
