10
Lattice="16.28999089631971 0.0 0.0 0.0 16.28999089631971 0.0 0.0 0.0 34.54679606040008" Properties=species:S:1:pos:R:3:initial_magmoms:R:1 pbc="T T T"
Si      -1.35549090      -1.35677781      -1.35775894       0.00000000
Si      -1.35483930       1.35832536       1.35734438       0.00000000
Si       1.35889551       1.35855342      -1.35751711       0.00000000
Si       1.36096434      -1.35894438       1.36045359       0.00000000
Si      -2.71314837       0.00058644      -2.71513786       0.00000000
Si      -2.71226871       2.71629234      -0.00031092       0.00000000
Si      -2.71334385      -2.71585577      -0.00127823       0.00000000
Si       0.00201996      -2.71441084      -2.71503422       0.00000000
Si       0.00215028       2.71568961      -2.71510331       0.00000000
Si       2.71800279      -2.71316466      -0.00044911       0.00000000
