10
Lattice="16.28999089631971 0.0 0.0 0.0 16.28999089631971 0.0 0.0 0.0 34.54679606040008" Properties=species:S:1:pos:R:3:initial_magmoms:R:1 pbc="T T T"
Si       0.51680025      -1.73216457       1.55826865       0.00000000
Si       1.04264145       2.03525631       0.77118856       0.00000000
Si      -2.37658068       0.25251129      -0.38968808       0.00000000
Si       0.71711838      -1.04260887      -2.11644155       0.00000000
Si       3.05232246       1.00181871       1.46533772       0.00000000
Si       1.94823513      -0.50678190       2.96062753       0.00000000
Si      -2.47818141       0.81805122      -2.72294544       0.00000000
Si      -1.41235929      -2.52429840       2.69841720       0.00000000
Si      -3.20538330       2.33233704       0.29309518       0.00000000
Si      -0.33363549       3.11468058       2.48308690       0.00000000
