10
Lattice="16.28999089631971 0.0 0.0 0.0 16.28999089631971 0.0 0.0 0.0 34.54679606040008" Properties=species:S:1:pos:R:3:initial_magmoms:R:1 pbc="T T T"
Si      -1.35304740       1.35335691      -1.36138635       0.00000000
Si      -1.35716877      -1.35738054       1.35689527       0.00000000
Si       1.35790182       1.35783666       1.35699891       0.00000000
Si       1.35775521      -1.35612621      -1.36169727       0.00000000
Si       2.71363707       2.71409319       0.00027637       0.00000000
Si      -2.71461447      -0.00008145       2.71430874       0.00000000
Si       2.71471221      -2.71432125      -0.00020728       0.00000000
Si       0.00014661      -2.71494027       2.71455056       0.00000000
Si       2.71505430       0.00079821       2.71448147       0.00000000
Si       0.00027693       2.71542897       2.71434328       0.00000000
