10
Lattice="16.28999089631971 0.0 0.0 0.0 16.28999089631971 0.0 0.0 0.0 34.54679606040008" Properties=species:S:1:pos:R:3:initial_magmoms:R:1 pbc="T T T"
Si      -1.67257575      -1.22653926      -1.17324440       0.00000000
Si       1.33701804       1.59909156      -1.16740598       0.00000000
Si      -1.44524880       1.23784452       1.44996439       0.00000000
Si       1.63128060      -0.78141501       1.70198341       0.00000000
Si       0.92545119       1.57398867       2.11744341       0.00000000
Si       2.59115256      -2.26605303       0.04180165       0.00000000
Si      -0.17897823      -2.54628990      -2.57553418       0.00000000
Si       2.56966605       0.17604603      -2.58341085       0.00000000
Si      -2.73597066      -0.50696109       2.48951261       0.00000000
Si      -2.91999879      -2.46923820       0.44344292       0.00000000
