10
Lattice="16.28999089631971 0.0 0.0 0.0 16.28999089631971 0.0 0.0 0.0 34.54679606040008" Properties=species:S:1:pos:R:3:initial_magmoms:R:1 pbc="T T T"
Si       0.44492877       2.14291692      -0.85544824       0.00000000
Si      -1.74936681       0.61713036       1.53854242       0.00000000
Si       2.05408755      -0.73715508       1.06680566       0.00000000
Si      -0.18230139      -1.19247687      -2.11999987       0.00000000
Si       1.65169197      -2.59040322      -1.75653283       0.00000000
Si       3.36901635      -1.14934095      -0.83617112       0.00000000
Si       1.95849783       0.65814858       3.02201722       0.00000000
Si      -1.73853396      -1.16872605       3.01099679       0.00000000
Si       1.88177193       1.65530835      -2.71890346       0.00000000
Si      -3.68702973       0.46755558       0.17162858       0.00000000
