10
Lattice="16.28999089631971 0.0 0.0 0.0 16.28999089631971 0.0 0.0 0.0 34.54679606040008" Properties=species:S:1:pos:R:3:initial_magmoms:R:1 pbc="T T T"
Si       1.31492880      -0.41218587      -1.90297678       0.00000000
Si      -0.09558972       1.39530366       1.95521156       0.00000000
Si      -2.05408755       0.73715508      -1.06680566       0.00000000
Si       0.12637782      -2.33259768       0.68136684       0.00000000
Si       2.30492097       1.14170094       0.41984745       0.00000000
Si      -1.62930951      -0.12481398       2.91702945       0.00000000
Si      -0.40239558      -1.85324814      -2.82333849       0.00000000
Si      -0.36569421      -2.06583264       2.95330361       0.00000000
Si      -1.13568993      -3.30353055      -1.02030565       0.00000000
Si       2.14909083       0.96293448       2.88704281       0.00000000
