10
Lattice="16.28999089631971 0.0 0.0 0.0 16.28999089631971 0.0 0.0 0.0 34.54679606040008" Properties=species:S:1:pos:R:3:initial_magmoms:R:1 pbc="T T T"
Si       1.35822762       1.35622395       1.35717164       0.00000000
Si      -1.35729909       1.35746199      -1.35720619       0.00000000
Si       1.35762489      -1.35759231      -1.35734438       0.00000000
Si      -1.35832536      -1.35845568       1.35737892       0.00000000
Si       2.71435383       0.00237834       2.71192501       0.00000000
Si       2.71336014      -0.00133578      -2.71406691       0.00000000
Si       0.00048870       2.71395808      -2.71493058       0.00000000
Si       2.71477737      -2.71463076       0.00013819       0.00000000
Si       2.71482624       2.71467519       0.00031092       0.00000000
Si      -0.00027693      -2.71542897      -2.71434328       0.00000000
