10
Lattice="16.28999089631971 0.0 0.0 0.0 16.28999089631971 0.0 0.0 0.0 34.54679606040008" Properties=species:S:1:pos:R:3:initial_magmoms:R:1 pbc="T T T"
Si       1.34188875       1.35215145       1.35302602       0.00000000
Si      -1.35612621       1.35384561      -1.35475336       0.00000000
Si       1.35759231      -1.35993807      -1.35406243       0.00000000
Si      -1.34587980      -1.37518551       1.36805389       0.00000000
Si      -0.13131369       2.49390126       2.79860297       0.00000000
Si       2.54529621      -0.03911229       2.77863491       0.00000000
Si       0.00047241       2.71229685      -2.71161408       0.00000000
Si      -2.71435383      -0.00237834      -2.71192501       0.00000000
Si       2.71516833      -0.00239463      -2.71216683       0.00000000
Si       2.71635750       2.71115523       0.00490565       0.00000000
