10
Lattice="16.28999089631971 0.0 0.0 0.0 16.28999089631971 0.0 0.0 0.0 34.54679606040008" Properties=species:S:1:pos:R:3:initial_magmoms:R:1 pbc="T T T"
Si       0.84126447       2.00968101       1.09530678       0.00000000
Si      -1.46847834       0.94045428      -1.72091506       0.00000000
Si       2.29899141      -0.94737753       0.22127235       0.00000000
Si      -0.89992476      -2.05886704       1.35188598       0.00000000
Si      -1.57664394      -0.11170053       2.55974628       0.00000000
Si       1.09664280      -3.10352030       0.36626534       0.00000000
Si      -3.29828517       0.61427961       1.10670723       0.00000000
Si      -2.66752008       2.42333298      -0.24434963       0.00000000
Si       1.55359359      -2.84865999      -1.94353474       0.00000000
Si       2.86521552      -0.71037432       2.53597808       0.00000000
