10
Lattice="16.28999089631971 0.0 0.0 0.0 16.28999089631971 0.0 0.0 0.0 34.54679606040008" Properties=species:S:1:pos:R:3:initial_magmoms:R:1 pbc="T T T"
Si      -1.51093008      -1.32212313      -1.20202189       0.00000000
Si      -1.28839239       1.40456941       1.37306318       0.00000000
Si       1.06007175       1.30984306      -1.68958110       0.00000000
Si       1.27351962      -1.15342322       1.67631512       0.00000000
Si       0.18111222      -2.61784602      -2.28420089       0.00000000
Si      -1.82283471       3.08760334      -0.18333995       0.00000000
Si      -0.45861237      -2.02824576       3.02992844       0.00000000
Si       0.34166646       3.50788534      -1.11261474       0.00000000
Si       3.33518202       0.85588963      -1.38629461       0.00000000
Si      -0.17873388       1.54759561       3.40486503       0.00000000
