10
Lattice="16.28999089631971 0.0 0.0 0.0 16.28999089631971 0.0 0.0 0.0 34.54679606040008" Properties=species:S:1:pos:R:3:initial_magmoms:R:1 pbc="T T T"
Si      -0.48099483       1.93894983       1.15051259       0.00000000
Si      -1.10965851      -0.14302620      -2.03180185       0.00000000
Si      -0.88847289      -1.84124567       1.19545800       0.00000000
Si       2.15304930      -0.97362072      -0.23909851       0.00000000
Si       1.45225350      -2.70101884      -1.72854991       0.00000000
Si      -3.24368109      -0.72469323      -1.37347774       0.00000000
Si      -0.27987849      -3.57584138      -0.37493659       0.00000000
Si       2.43818946      -1.71174180       2.04479145       0.00000000
Si       0.37602207      -1.77785476       3.17008487       0.00000000
Si       0.17873388      -1.54759561      -3.40486503       0.00000000
