10
Lattice="16.28999089631971 0.0 0.0 0.0 16.28999089631971 0.0 0.0 0.0 34.54679606040008" Properties=species:S:1:pos:R:3:initial_magmoms:R:1 pbc="T T T"
Si      -1.35674523       1.35713619      -1.35758620       0.00000000
Si       1.35790182       1.35637056       1.35765530       0.00000000
Si       1.35799956      -1.35747828      -1.35779348       0.00000000
Si      -1.35889551      -1.35855342       1.35751711       0.00000000
Si      -2.71373481      -0.00022806       2.71486149       0.00000000
Si      -0.00081450      -2.71510317      -2.71354871       0.00000000
Si      -2.71435383       2.71433754       0.00010364       0.00000000
Si      -2.71494027      -0.00263898      -2.71461966       0.00000000
Si       0.00021177       2.71495656      -2.71465420       0.00000000
Si      -2.71438641      -2.71533123      -0.00024183       0.00000000
