10
Lattice="16.28999089631971 0.0 0.0 0.0 16.28999089631971 0.0 0.0 0.0 34.54679606040008" Properties=species:S:1:pos:R:3:initial_magmoms:R:1 pbc="T T T"
Si       1.74917133       0.99613350      -1.29042719       0.00000000
Si      -0.84126447      -2.00968101      -1.09530678       0.00000000
Si       1.30554576      -0.52201305       2.01763766       0.00000000
Si      -1.88906985       1.64957427       0.05638040       0.00000000
Si      -0.85895541      -0.94229505       2.94691244       0.00000000
Si       1.45772694      -2.95705854      -0.87403443       0.00000000
Si       0.24275358       1.75114242      -2.99783445       0.00000000
Si       1.52643816       3.13395165      -0.26949971       0.00000000
Si      -2.41790841      -2.12138154       1.46443950       0.00000000
Si      -0.71711838       3.23578044      -1.33765269       0.00000000
