10
Lattice="16.28999089631971 0.0 0.0 0.0 16.28999089631971 0.0 0.0 0.0 34.54679606040008" Properties=species:S:1:pos:R:3:initial_magmoms:R:1 pbc="T T T"
Si      -1.14508926      -0.12321756      -1.98022346       0.00000000
Si      -0.73793700       2.23881615       0.47636604       0.00000000
Si      -0.55754154      -1.89920223       1.37423777       0.00000000
Si       2.28991788      -0.00074934      -0.78708009       0.00000000
Si       0.97179624      -1.33504695       3.10745150       0.00000000
Si      -0.41550903       1.77238458      -3.14904586       0.00000000
Si      -3.42526572      -0.03539817      -1.40422440       0.00000000
Si      -0.09767484       3.41270613      -1.44799522       0.00000000
Si       0.12070890       2.69092881       2.58175261       0.00000000
Si       3.09091347      -2.10733956      -0.05727862       0.00000000
