10
Lattice="16.28999089631971 0.0 0.0 0.0 16.28999089631971 0.0 0.0 0.0 34.54679606040008" Properties=species:S:1:pos:R:3:initial_magmoms:R:1 pbc="T T T"
Si       1.27674504      -1.33227765       1.52377020       0.00000000
Si      -1.45640745       1.37754756       1.50534984       0.00000000
Si       1.64141298       1.30546431      -1.38324209       0.00000000
Si      -1.04878278      -2.06115741      -1.40473021       0.00000000
Si      -0.01765836       1.96871166      -2.85659467       0.00000000
Si       2.69355150      -2.67051744       0.00732047       0.00000000
Si       2.65065993       2.76612345       0.16368627       0.00000000
Si       2.61659754       0.02065572       2.91135686       0.00000000
Si      -2.80591992      -2.77208559       0.10328807       0.00000000
Si      -0.09083304      -2.69291619       2.90717670       0.00000000
