10
Lattice="16.28999089631971 0.0 0.0 0.0 16.28999089631971 0.0 0.0 0.0 34.54679606040008" Properties=species:S:1:pos:R:3:initial_magmoms:R:1 pbc="T T T"
Si      -1.33555194      -1.34633592       1.36349371       0.00000000
Si       1.35707103      -1.35695700      -1.35565158       0.00000000
Si      -1.35664749       1.35826020      -1.35551339       0.00000000
Si       1.33599177       1.36578618       1.36922848       0.00000000
Si       0.16185744      -2.55746484       2.73558957       0.00000000
Si      -2.56819995       0.07670961       2.77949858       0.00000000
Si      -2.71381626       0.00118917      -2.71323779       0.00000000
Si       0.00141723      -2.71423980      -2.71341052       0.00000000
Si       2.71609686       0.00074934      -2.71327233       0.00000000
Si       0.00092853       2.71580364      -2.71361780       0.00000000
