10
Lattice="16.28999089631971 0.0 0.0 0.0 16.28999089631971 0.0 0.0 0.0 34.54679606040008" Properties=species:S:1:pos:R:3:initial_magmoms:R:1 pbc="T T T"
Si      -1.33200072      -1.57314159      -1.11271838       0.00000000
Si       1.01489958       1.13938776      -1.83008300       0.00000000
Si      -1.40328576       1.16445807       1.62311303       0.00000000
Si       1.74094488      -1.41232671       0.97504932       0.00000000
Si       0.37726011      -2.33642583      -2.70971401       0.00000000
Si      -2.07477585      -0.65298465       3.00505473       0.00000000
Si       2.04121845      -0.64467675      -3.11605365       0.00000000
Si      -3.34168173      -0.53970399      -1.80686754       0.00000000
Si       1.56486627      -1.06526826       3.34167890       0.00000000
Si       2.88328113       2.40995889      -1.10359802       0.00000000
