10
Lattice="16.28999089631971 0.0 0.0 0.0 16.28999089631971 0.0 0.0 0.0 34.54679606040008" Properties=species:S:1:pos:R:3:initial_magmoms:R:1 pbc="T T T"
Si       1.65907134      -0.66324735       1.47335258       0.00000000
Si      -1.16320374       1.85671791       1.11289111       0.00000000
Si       0.26210610      -0.14082705      -2.46121877       0.00000000
Si      -0.14941188      -2.36534058      -1.63786452       0.00000000
Si       0.01765836      -1.96871166       2.85659467       0.00000000
Si      -1.98257445       0.29154213      -3.39305002       0.00000000
Si      -2.83714785       0.83398284       2.77862251       0.00000000
Si      -1.76495634       3.65102883      -0.35082291       0.00000000
Si       2.66831829       0.79741179       3.02028094       0.00000000
Si       3.96402489      -1.46785932      -0.17117947       0.00000000
