10
Lattice="16.28999089631971 0.0 0.0 0.0 16.28999089631971 0.0 0.0 0.0 34.54679606040008" Properties=species:S:1:pos:R:3:initial_magmoms:R:1 pbc="T T T"
Si      -1.34495127      -1.35109260       1.36883810       0.00000000
Si       1.36780614       1.36573731       1.36514159       0.00000000
Si       1.39779603      -1.32297606      -1.37724334       0.00000000
Si      -1.36190916       1.20068703      -1.56880889       0.00000000
Si       0.51645816       2.25087075      -2.71105239       0.00000000
Si       2.33230446       0.51966729      -2.75731058       0.00000000
Si      -2.70785412       2.70328870      -0.02353675       0.00000000
Si      -2.70927135      -2.71155195      -0.03557977       0.00000000
Si       2.72328075      -2.70495450       0.01789871       0.00000000
Si      -2.70435177       0.00356751       2.72811710       0.00000000
