10
Lattice="16.28999089631971 0.0 0.0 0.0 16.28999089631971 0.0 0.0 0.0 34.54679606040008" Properties=species:S:1:pos:R:3:initial_magmoms:R:1 pbc="T T T"
Si      -1.35637056       1.35571320       1.35896808       0.00000000
Si       1.35775521       1.35736867      -1.35748256       0.00000000
Si      -1.35755973      -1.35783666      -1.35810441       0.00000000
Si       1.35451350      -1.35708732       1.36421919       0.00000000
Si       2.71277370       2.71474709      -0.00093276       0.00000000
Si      -2.71375110       2.71574567      -0.00069094       0.00000000
Si       2.71474479       0.00042354      -2.71503422       0.00000000
Si       0.00053757       2.71462003      -2.71558697       0.00000000
Si      -0.00037467      -2.71549413      -2.71499967       0.00000000
Si      -2.71513575      -2.71538010       0.00000000       0.00000000
