10
Lattice="16.28999089631971 0.0 0.0 0.0 16.28999089631971 0.0 0.0 0.0 34.54679606040008" Properties=species:S:1:pos:R:3:initial_magmoms:R:1 pbc="T T T"
Si       0.62144721      -0.33875055      -2.28081530       0.00000000
Si      -0.01366731       2.34569484      -0.45435972       0.00000000
Si      -2.26541772      -0.90042975       0.00069094       0.00000000
Si       1.63437570      -0.89002044       1.62038383       0.00000000
Si       2.45529396       1.87015716      -0.65514581       0.00000000
Si       1.82969280      -2.37609198      -2.00267889       0.00000000
Si       2.66069457      -2.67408495       0.33441317       0.00000000
Si      -2.58160662      -1.70536752      -2.22260391       0.00000000
Si       2.37776985       1.20071961      -2.89678502       0.00000000
Si       0.61947612      -2.02940820       3.45046683       0.00000000
