10
Lattice="16.28999089631971 0.0 0.0 0.0 16.28999089631971 0.0 0.0 0.0 34.54679606040008" Properties=species:S:1:pos:R:3:initial_magmoms:R:1 pbc="T T T"
Si       2.17233666      -0.24079878       0.86007752       0.00000000
Si      -0.98262909       0.10638999       2.14052068       0.00000000
Si      -1.02249072      -1.92380013      -0.94285168       0.00000000
Si      -0.89207298       1.87644510      -1.15666193       0.00000000
Si       1.59283620      -2.17277649       2.07367259       0.00000000
Si      -0.70398864      -2.18735604       2.76191425       0.00000000
Si      -3.18122523      -0.93659355      -1.44364232       0.00000000
Si      -3.23162649       0.83818566       1.80248009       0.00000000
Si       0.84005901       2.75126764      -2.51027525       0.00000000
Si       2.78905977       1.72240686       2.04365141       0.00000000
