10
Lattice="16.28999089631971 0.0 0.0 0.0 16.28999089631971 0.0 0.0 0.0 34.54679606040008" Properties=species:S:1:pos:R:3:initial_magmoms:R:1 pbc="T T T"
Si      -0.60175260       1.79431092      -1.46371402       0.00000000
Si       1.16320374      -1.85671791      -1.11289111       0.00000000
Si       1.07181684       1.46435697       1.71582428       0.00000000
Si      -1.67394411      -1.02273507       1.66573140       0.00000000
Si       2.82227508      -2.51996526       0.36046147       0.00000000
Si      -2.97342999       1.87442514      -1.49712079       0.00000000
Si       2.95018416       2.51454069       0.57358078       0.00000000
Si      -0.27554535      -2.44788201       3.24905340       0.00000000
Si       2.43372600       0.26366994       3.28463317       0.00000000
Si      -3.53282859      -2.08075428       0.50693997       0.00000000
