10
Lattice="16.28999089631971 0.0 0.0 0.0 16.28999089631971 0.0 0.0 0.0 34.54679606040008" Properties=species:S:1:pos:R:3:initial_magmoms:R:1 pbc="T T T"
Si      -1.35759231      -1.35790587      -1.35706800       0.00000000
Si       1.35721764      -1.35725136       1.35810441       0.00000000
Si       1.35801585       1.35822925      -1.35637706       0.00000000
Si      -1.35731538       1.35762652       1.35775894       0.00000000
Si       2.71223613       0.00012706       2.71465420       0.00000000
Si       2.71420722      -2.71419649       0.00055275       0.00000000
Si       0.00190593       2.71445320       2.71472330       0.00000000
Si      -2.71428867       0.00112564       2.71489603       0.00000000
Si       2.71422351      -0.00206394      -2.71537969       0.00000000
Si       0.00104256       2.71354096      -2.71627791       0.00000000
