10
Lattice="16.28999089631971 0.0 0.0 0.0 16.28999089631971 0.0 0.0 0.0 34.54679606040008" Properties=species:S:1:pos:R:3:initial_magmoms:R:1 pbc="T T T"
Si      -0.74414349       1.76052546      -1.26410252       0.00000000
Si       1.96364547       0.02634093       1.34642758       0.00000000
Si      -2.30386212       0.36852867       0.72931782       0.00000000
Si       0.58567437      -1.82312956      -2.56672474       0.00000000
Si      -0.02252907       3.02129001       1.53190943       0.00000000
Si       0.53747226       0.15157845       3.34731003       0.00000000
Si      -2.26838250       0.55438128      -2.54330200       0.00000000
Si      -1.73763801       0.60553188       3.04402354       0.00000000
Si      -1.15188219      -3.00593573      -1.52310000       0.00000000
Si      -3.04925994      -1.53275379      -1.43548927       0.00000000
