10
Lattice="16.28999089631971 0.0 0.0 0.0 16.28999089631971 0.0 0.0 0.0 34.54679606040008" Properties=species:S:1:pos:R:3:initial_magmoms:R:1 pbc="T T T"
Si       0.74414349      -1.76052546       1.26410252       0.00000000
Si      -1.52423901      -1.20614418      -1.27919948       0.00000000
Si       1.14595263       1.49734422      -1.39634773       0.00000000
Si      -1.55971863      -1.39199679       1.99342034       0.00000000
Si       0.72161442       1.26076455       2.79601195       0.00000000
Si      -1.26827424       2.56119525       1.57702757       0.00000000
Si      -0.09586665      -2.38710565      -2.75217205       0.00000000
Si       2.60319087       0.30612168      -2.77324560       0.00000000
Si       2.93291676       2.43763560      -0.13445621       0.00000000
Si      -2.79551061       0.28968507      -2.75566127       0.00000000
