10
Lattice="16.28999089631971 0.0 0.0 0.0 16.28999089631971 0.0 0.0 0.0 34.54679606040008" Properties=species:S:1:pos:R:3:initial_magmoms:R:1 pbc="T T T"
Si      -2.15304930       0.97362072       0.23909851       0.00000000
Si      -0.70079580      -1.72739812      -1.48945140       0.00000000
Si       1.87440885       1.29248118      -0.71805556       0.00000000
Si       0.28514016      -0.73812108       2.28388996       0.00000000
Si      -3.04152219      -0.86762495       1.43455651       0.00000000
Si      -2.43292779      -2.60222066      -0.13583808       0.00000000
Si       3.62527434      -0.07470594       0.08056317       0.00000000
Si      -1.97431542      -0.57397489      -3.16576652       0.00000000
Si       1.31416317      -2.85424325      -2.10718300       0.00000000
Si       1.60195860       0.92844855       3.31255594       0.00000000
