10
Lattice="16.28999089631971 0.0 0.0 0.0 16.28999089631971 0.0 0.0 0.0 34.54679606040008" Properties=species:S:1:pos:R:3:initial_magmoms:R:1 pbc="T T T"
Si      -1.09918404      -1.39351990       1.45165169       0.00000000
Si       0.86372838      -1.62347280      -1.45321179       0.00000000
Si       1.60534692       1.28723580       1.21017636       0.00000000
Si      -1.64903670      -1.02569985      -1.54897556       0.00000000
Si      -2.48000589      -0.00355122       2.78078514       0.00000000
Si      -1.97659602      -3.19366169       0.06816087       0.00000000
Si       2.72829807      -2.64239536      -0.03357950       0.00000000
Si       0.24408936       2.69612532       2.75538287       0.00000000
Si       0.24861798      -2.72550811       2.79869766       0.00000000
Si       3.01080383       2.59584408      -0.31099043       0.00000000
