10
Lattice="16.28999089631971 0.0 0.0 0.0 16.28999089631971 0.0 0.0 0.0 34.54679606040008" Properties=species:S:1:pos:R:3:initial_magmoms:R:1 pbc="T T T"
Si      -1.35703845       1.35711990       1.35724074       0.00000000
Si       1.35772263      -1.35803214       1.35696436       0.00000000
Si      -1.35702216      -1.35881406      -1.35862261       0.00000000
Si       1.35837423       1.35886293      -1.35775894       0.00000000
Si      -0.00560376       2.71383255      -2.71448147       0.00000000
Si      -0.00138465       2.71440270       2.71499967       0.00000000
Si       2.71505430       2.71445157       0.00020728       0.00000000
Si      -2.71482624      -2.71500543      -0.00041456       0.00000000
Si      -2.71484253       2.71500543      -0.00010364       0.00000000
Si      -2.71492398      -0.00115659       2.71503422       0.00000000
