10
Lattice="16.28999089631971 0.0 0.0 0.0 16.28999089631971 0.0 0.0 0.0 34.54679606040008" Properties=species:S:1:pos:R:3:initial_magmoms:R:1 pbc="T T T"
Si       1.35547461      -1.35736425       1.35409698       0.00000000
Si       1.35524655       1.35788553      -1.35730983       0.00000000
Si      -1.35922131      -1.35682668      -1.35696436       0.00000000
Si      -1.35785295       1.35650088       1.36028086       0.00000000
Si       2.70288567      -0.01124010       2.70221735       0.00000000
Si      -2.69581581      -0.02767671       2.71980168       0.00000000
Si       2.71033020      -2.71432614      -0.00006909       0.00000000
Si       2.71321353       0.00045612      -2.71420510       0.00000000
Si       0.00382815      -2.70446743       2.72329091       0.00000000
Si      -0.00190593      -2.71445320      -2.71472330       0.00000000
