10
Lattice="16.28999089631971 0.0 0.0 0.0 16.28999089631971 0.0 0.0 0.0 34.54679606040008" Properties=species:S:1:pos:R:3:initial_magmoms:R:1 pbc="T T T"
Si       0.24853653      -2.13732945      -1.05253782       0.00000000
Si       2.27278080       0.76742190       0.24555876       0.00000000
Si      -0.82490931      -0.39477186       2.24827220       0.00000000
Si      -1.46566017       1.48131486      -1.24606908       0.00000000
Si       0.24255810       1.28402667       3.47122946       0.00000000
Si      -3.53033622       1.37836206      -0.11369357       0.00000000
Si      -1.62587232      -3.42981063      -0.33448227       0.00000000
Si      -0.02391372      -2.50136208       2.97807367       0.00000000
Si       2.33912997       3.13401681       0.64567998       0.00000000
Si       0.95491980      -1.94901705      -3.33007117       0.00000000
