10
Lattice="16.28999089631971 0.0 0.0 0.0 16.28999089631971 0.0 0.0 0.0 34.54679606040008" Properties=species:S:1:pos:R:3:initial_magmoms:R:1 pbc="T T T"
Si       1.06746741       1.67879853       1.22295726       0.00000000
Si       0.80099559      -2.10659022       0.72980147       0.00000000
Si      -2.28991788       0.00074934       0.78708009       0.00000000
Si       0.82490931       0.39477186      -2.24827220       0.00000000
Si      -3.43500714      -0.12246822      -1.19314336       0.00000000
Si       0.84147624      -1.91567142       3.08976353       0.00000000
Si      -0.51582285      -3.77315985      -0.29886450       0.00000000
Si       3.24118872       0.98132589       1.78271931       0.00000000
Si       3.09769011       1.16219376      -2.00271343       0.00000000
Si       1.07344584      -1.74255759      -3.30081002       0.00000000
