10
Lattice="16.28999089631971 0.0 0.0 0.0 16.28999089631971 0.0 0.0 0.0 34.54679606040008" Properties=species:S:1:pos:R:3:initial_magmoms:R:1 pbc="T T T"
Si       0.80040426      -1.03322583       1.94291290       0.00000000
Si      -0.35029364       2.28594312       0.39604469       0.00000000
Si       1.95651534       0.05315427      -1.43390012       0.00000000
Si      -2.15323079      -1.00945872      -0.68993445       0.00000000
Si       0.00585463       0.96676263      -2.82914235       0.00000000
Si      -1.31998100       2.83327083      -1.71258928       0.00000000
Si      -0.70180808      -0.51339564       3.68193049       0.00000000
Si      -2.01966908      -3.22983459       0.10630055       0.00000000
Si       2.92142091      -2.04191892      -1.64570664       0.00000000
Si       1.64464329       3.36930957       1.18423028       0.00000000
