10
Lattice="16.28999089631971 0.0 0.0 0.0 16.28999089631971 0.0 0.0 0.0 34.54679606040008" Properties=species:S:1:pos:R:3:initial_magmoms:R:1 pbc="T T T"
Si       0.58054302      -0.65446704       2.13502774       0.00000000
Si      -0.96490557       2.09507319       0.21180653       0.00000000
Si      -1.59277104      -1.58729760      -0.62104810       0.00000000
Si       1.69036443      -0.60818715      -1.53702236       0.00000000
Si       0.39921903      -2.50421283      -2.07591814       0.00000000
Si       2.11628277      -2.29934979       1.66975123       0.00000000
Si       3.41200566      -1.33416729      -0.08398331       0.00000000
Si      -1.41872868      -1.23132852       3.22722530       0.00000000
Si      -2.74644513      -2.16108027       1.48133290       0.00000000
Si       0.84714516       3.73190868       0.23471106       0.00000000
