10
Lattice="16.28999089631971 0.0 0.0 0.0 16.28999089631971 0.0 0.0 0.0 34.54679606040008" Properties=species:S:1:pos:R:3:initial_magmoms:R:1 pbc="T T T"
Si      -0.24263955      -2.35359549       0.10222403       0.00000000
Si      -0.40259106       0.81438597       2.21234351       0.00000000
Si       2.39562762       0.25308144      -0.24573150       0.00000000
Si      -1.43150004       1.12125699      -1.63492804       0.00000000
Si       0.97421598       2.69452890       1.88680887       0.00000000
Si       1.09544616      -3.01519755      -1.69203392       0.00000000
Si       2.92284044       1.30017006       1.80821486       0.00000000
Si       3.09038309      -1.93183110      -0.90384833       0.00000000
Si      -2.57383629      -2.70102861       0.44371930       0.00000000
Si      -1.84055823       3.42397881      -1.09337216       0.00000000
