10
Lattice="16.28999089631971 0.0 0.0 0.0 16.28999089631971 0.0 0.0 0.0 34.54679606040008" Properties=species:S:1:pos:R:3:initial_magmoms:R:1 pbc="T T T"
Si      -1.64398680       0.09265752       1.66211638       0.00000000
Si      -0.06634917      -2.36659491      -0.40012122       0.00000000
Si      -1.05292044       1.09434591      -1.89174906       0.00000000
Si       2.14478117       0.86007942       0.76607563       0.00000000
Si       3.44193758       0.41656788      -1.14173770       0.00000000
Si      -0.62204994       1.28114334       3.38676250       0.00000000
Si       0.28516527       0.43274385      -3.68600701       0.00000000
Si      -3.38411718       0.74691279      -1.55025379       0.00000000
Si      -3.56019579       1.09397124       0.81637579       0.00000000
Si       1.09568888      -3.39765417       1.38646734       0.00000000
