10
Lattice="16.28999089631971 0.0 0.0 0.0 16.28999089631971 0.0 0.0 0.0 34.54679606040008" Properties=species:S:1:pos:R:3:initial_magmoms:R:1 pbc="T T T"
Si       1.35752715       1.35579670       1.35641161       0.00000000
Si      -1.35709221      -1.35745334       1.35699891       0.00000000
Si      -1.35748317       1.35727257      -1.35706800       0.00000000
Si       1.35824391      -1.35761624      -1.35713709       0.00000000
Si      -2.71564793      -0.00108278      -2.71344507       0.00000000
Si      -0.00210141       2.71433708      -2.71496513       0.00000000
Si      -2.71456133      -2.71475243       0.00048366       0.00000000
Si      -2.71494343       2.71445111       0.00062184       0.00000000
Si       2.71538010       2.71487465      -0.00006909       0.00000000
Si      -0.00076563      -2.71535516      -2.71513786       0.00000000
