10
Lattice="16.28999089631971 0.0 0.0 0.0 16.28999089631971 0.0 0.0 0.0 34.54679606040008" Properties=species:S:1:pos:R:3:initial_magmoms:R:1 pbc="T T T"
Si      -1.00924695      -1.46065914      -1.54692836       0.00000000
Si      -1.39779603       1.32297606       1.37724334       0.00000000
Si       1.32548472      -1.38197844       1.39514205       0.00000000
Si       0.93450843       1.84264335      -1.38006724       0.00000000
Si      -2.75970519       2.52366309      -0.19156555       0.00000000
Si       2.66460417       2.65802301       0.03398716       0.00000000
Si      -2.65065993      -2.76612345      -0.16368627       0.00000000
Si      -0.02998989       2.68871337       2.74238493       0.00000000
Si       2.68806177      -0.03067407       2.74642691       0.00000000
Si       2.59252092      -2.85430122       0.09557376       0.00000000
