10
Lattice="16.28999089631971 0.0 0.0 0.0 16.28999089631971 0.0 0.0 0.0 34.54679606040008" Properties=species:S:1:pos:R:3:initial_magmoms:R:1 pbc="T T T"
Si      -0.80040426       1.03322583      -1.94291290       0.00000000
Si      -1.50221234       0.51983019       1.73901759       0.00000000
Si       0.70228796      -2.24002161      -0.36139424       0.00000000
Si       2.05106738       0.95057037       0.77284681       0.00000000
Si       1.93376309      -0.19743480       2.85591613       0.00000000
Si       2.70155966      -1.66316013      -1.45359180       0.00000000
Si      -0.34017430      -0.51122907       3.52560615       0.00000000
Si       1.15611107       1.08638010      -3.37681301       0.00000000
Si      -1.15069791       3.31916895      -1.54686820       0.00000000
Si      -0.62542849      -3.16977336      -2.10728664       0.00000000
