10
Lattice="16.28999089631971 0.0 0.0 0.0 16.28999089631971 0.0 0.0 0.0 34.54679606040008" Properties=species:S:1:pos:R:3:initial_magmoms:R:1 pbc="T T T"
Si      -1.86838155      -1.27057113      -0.72648498       0.00000000
Si      -0.40905819       2.30272182       0.54155588       0.00000000
Si       0.97008579       0.18101448      -2.18878258       0.00000000
Si       1.43150004      -1.12125699       1.63492804       0.00000000
Si      -1.04746329       1.48960647      -3.00201461       0.00000000
Si      -0.06348213       3.18207231      -1.60991614       0.00000000
Si       2.08230183       2.27224323      -2.04330594       0.00000000
Si      -0.84206268      -3.05463564      -2.01245564       0.00000000
Si       1.62176724       2.96233650       1.71182925       0.00000000
Si      -2.88328113      -2.40995889       1.10359802       0.00000000
