10
Lattice="16.28999089631971 0.0 0.0 0.0 16.28999089631971 0.0 0.0 0.0 34.54679606040008" Properties=species:S:1:pos:R:3:initial_magmoms:R:1 pbc="T T T"
Si      -0.29887263       2.25680750      -0.29340610       0.00000000
Si      -0.34557606      -0.87935049       2.15147202       0.00000000
Si       2.14578396      -0.90982908      -0.43338980       0.00000000
Si      -0.98398116      -1.69246584      -1.39209847       0.00000000
Si       1.03356792      -3.00105783      -0.57886644       0.00000000
Si       1.12730058       2.13156998      -2.29428856       0.00000000
Si       3.14979109       0.12690000       1.45096625       0.00000000
Si       0.06348213      -3.18207231       1.60991614       0.00000000
Si       2.64065040       0.12126276      -2.48768163       0.00000000
Si      -2.36053503       0.24749464       2.76920363       0.00000000
