10
Lattice="16.28999089631971 0.0 0.0 0.0 16.28999089631971 0.0 0.0 0.0 34.54679606040008" Properties=species:S:1:pos:R:3:initial_magmoms:R:1 pbc="T T T"
Si       1.11229749       1.20733335       1.61278353       0.00000000
Si       0.11730429       1.14800517      -2.08306933       0.00000000
Si      -2.27393739      -0.31379427       0.66969002       0.00000000
Si       1.03988844      -2.15919063      -0.36847633       0.00000000
Si      -1.81019041      -2.60087769       0.85707194       0.00000000
Si       1.15435827      -0.65958210       3.09753656       0.00000000
Si      -1.93376309       0.19743480      -2.85591613       0.00000000
Si       2.86513407      -1.38059379      -1.56928909       0.00000000
Si      -0.31369653       3.01101102       2.07837096       0.00000000
Si      -0.79757469      -3.35500695      -1.26797176       0.00000000
