10
Lattice="16.28999089631971 0.0 0.0 0.0 16.28999089631971 0.0 0.0 0.0 34.54679606040008" Properties=species:S:1:pos:R:3:initial_magmoms:R:1 pbc="T T T"
Si      -1.05798663       1.97887662      -0.76638655       0.00000000
Si       0.67530195       0.29755314       2.26620199       0.00000000
Si      -1.45290510      -1.80467136      -0.64063614       0.00000000
Si       2.27097261      -0.30985209      -0.88201474       0.00000000
Si       1.48382352      -1.91733300       2.56067905       0.00000000
Si      -0.06294456      -3.61434375      -0.09662744       0.00000000
Si      -0.42818265       2.00933892      -3.05041470       0.00000000
Si       0.24689124       3.68074735       0.41197077       0.00000000
Si       3.26416644      -1.52844183       0.97567116       0.00000000
Si       2.13162795      -1.62362430      -2.84472296       0.00000000
