10
Lattice="16.28999089631971 0.0 0.0 0.0 16.28999089631971 0.0 0.0 0.0 34.54679606040008" Properties=species:S:1:pos:R:3:initial_magmoms:R:1 pbc="T T T"
Si       0.80852157      -2.21488614       0.29447705       0.00000000
Si      -0.67530195      -0.29755314      -2.26620199       0.00000000
Si      -1.41164253       0.40413861       1.97027397       0.00000000
Si       2.03735513       1.47844782      -0.00798031       0.00000000
Si       2.58886449      -1.82599497      -1.29053083       0.00000000
Si       1.59567066      -0.60740523      -3.14821674       0.00000000
Si       0.31845321       1.21951827       3.38432837       0.00000000
Si       1.47740526       2.68660839       1.91479179       0.00000000
Si       3.71477879      -0.20326662       0.02003715       0.00000000
Si      -0.38716443       3.70553095       0.49515950       0.00000000
