10
Lattice="16.28999089631971 0.0 0.0 0.0 16.28999089631971 0.0 0.0 0.0 34.54679606040008" Properties=species:S:1:pos:R:3:initial_magmoms:R:1 pbc="T T T"
Si       2.04746566       0.36129591      -1.13541563       0.00000000
Si       0.44722077      -0.04709439       2.32959540       0.00000000
Si      -0.93131463      -2.11331799      -0.54525239       0.00000000
Si      -1.63051401       1.71528813      -0.54380142       0.00000000
Si       1.56948448       2.11470264       2.31812586       0.00000000
Si      -2.65245087       0.52680231      -2.26844754       0.00000000
Si       2.97413860       1.92101454       0.39635561       0.00000000
Si      -3.10503594      -1.41584535      -1.10501444       0.00000000
Si       1.13631709       1.29422421      -3.16448829       0.00000000
Si       0.08722480      -2.96350938      -2.54409658       0.00000000
