10
Lattice="16.28999089631971 0.0 0.0 0.0 16.28999089631971 0.0 0.0 0.0 34.54679606040008" Properties=species:S:1:pos:R:3:initial_magmoms:R:1 pbc="T T T"
Si      -1.30657798      -1.43412273      -1.18809538       0.00000000
Si      -1.31142386       1.40884065       1.27431456       0.00000000
Si       1.72298678       0.71534277      -1.37216841       0.00000000
Si       1.41390032      -1.34558658       1.25803955       0.00000000
Si       2.57242883       2.54119113      -0.10406883       0.00000000
Si      -2.66170196       0.04336398       2.62133635       0.00000000
Si       0.05633082      -2.67214644       2.62175091       0.00000000
Si       0.71116601       1.30927617      -3.45539462       0.00000000
Si       0.05114734       2.76527637       2.62420373       0.00000000
Si       2.77139489       0.03984534       2.61860715       0.00000000
