10
Lattice="16.28999089631971 0.0 0.0 0.0 16.28999089631971 0.0 0.0 0.0 34.54679606040008" Properties=species:S:1:pos:R:3:initial_magmoms:R:1 pbc="T T T"
Si      -1.35625482       1.35759231      -1.35806986       0.00000000
Si      -1.35772092      -1.35658233       1.35786258       0.00000000
Si       1.35753605       1.35817875       1.35786258       0.00000000
Si       1.36177796      -1.35791811      -1.35765530       0.00000000
Si       2.71234277      -2.71379997      -0.00055275       0.00000000
Si      -2.71440099      -2.71217097      -0.00010364       0.00000000
Si      -0.00597672       2.72306898      -2.70509165       0.00000000
Si      -2.71883187       0.00628794      -2.70935472       0.00000000
Si       0.00035855      -2.71402803       2.71465420       0.00000000
Si       2.71385774       2.71586880      -0.00027637       0.00000000
