10
Lattice="16.28999089631971 0.0 0.0 0.0 16.28999089631971 0.0 0.0 0.0 34.54679606040008" Properties=species:S:1:pos:R:3:initial_magmoms:R:1 pbc="T T T"
Si      -2.14974064      -0.58292136      -0.78780558       0.00000000
Si       1.33613838      -1.69292196       1.09689593       0.00000000
Si       0.59508999       1.23365799       2.03850393       0.00000000
Si       0.91313595       1.45186254      -2.19724655       0.00000000
Si       2.69263926       0.08270433       1.81975350       0.00000000
Si       0.04101822      -2.09342790       3.00933854       0.00000000
Si      -3.51077912       1.14067467       0.08947625       0.00000000
Si      -0.65373725       0.09148464       3.66745537       0.00000000
Si      -2.92360607      -2.62946664       0.11251898       0.00000000
Si      -2.39856308       3.23190342       0.23495289       0.00000000
