10
Lattice="16.28999089631971 0.0 0.0 0.0 16.28999089631971 0.0 0.0 0.0 34.54679606040008" Properties=species:S:1:pos:R:3:initial_magmoms:R:1 pbc="T T T"
Si      -1.72298678      -0.71534277       1.37216841       0.00000000
Si       0.84944205       1.82584836       1.26809959       0.00000000
Si      -1.01182077       0.59393340      -2.08322621       0.00000000
Si       1.85288976      -1.66275288      -0.15337201       0.00000000
Si      -0.30908646      -2.06092935       2.63020797       0.00000000
Si       1.06974801       0.57577005      -3.15307199       0.00000000
Si       1.63305621      -1.71732438      -2.56194143       0.00000000
Si       2.41106661       0.68488047       2.61313493       0.00000000
Si      -3.02956477      -2.14946550       0.18407303       0.00000000
Si       0.96917355      -3.56426829       1.08141205       0.00000000
