10
Lattice="16.290000149 0.0 0.0 0.0 16.290000149 0.0 0.0 0.0 29.1751946751" Properties=species:S:1:pos:R:3:initial_magmoms:R:1 pbc="T T T"
Si       1.08279631      -1.41995044      -1.49823377       0.00000000
Si      -1.54504135       1.32481684      -1.18512558       0.00000000
Si      -1.05502186      -1.76233367       1.18238311       0.00000000
Si       2.12706677       0.96886405       0.68051142       0.00000000
Si       0.21952404       0.80713693       3.38829041       0.00000000
Si       2.37776987      -2.71375112      -0.07150840       0.00000000
Si      -0.20144214       2.70298343      -2.49900130       0.00000000
Si       2.49787604      -0.09335799      -2.73692501       0.00000000
Si      -1.40094001      -0.88066999       3.31821159       0.00000000
Si       0.54696934      -3.53892108       1.09307784       0.00000000
