10
Lattice="16.290000149 0.0 0.0 0.0 16.290000149 0.0 0.0 0.0 29.1751946751" Properties=species:S:1:pos:R:3:initial_magmoms:R:1 pbc="T T T"
Si       1.72172270      -0.76229056      -1.37613558       0.00000000
Si       1.35422029       1.35174421       1.33992917       0.00000000
Si      -1.44007674       1.18514638      -1.44420131       0.00000000
Si      -1.19346731      -1.69243328       1.18926846       0.00000000
Si      -1.66730269      -0.66596779      -2.88224666       0.00000000
Si       0.64257535      -0.84556504      -3.47657455       0.00000000
Si       2.57378744      -2.60996753      -0.25195698       0.00000000
Si      -2.65246619      -0.41184378       2.53544112       0.00000000
Si      -0.09024660       2.54317853       2.69984422       0.00000000
Si       2.62752815      -0.13929579       2.68456371       0.00000000
