10
Lattice="16.290000149 0.0 0.0 0.0 16.290000149 0.0 0.0 0.0 29.1751946751" Properties=species:S:1:pos:R:3:initial_magmoms:R:1 pbc="T T T"
Si       1.31211064       1.35791812       1.34637105       0.00000000
Si      -1.38134314       1.26899101      -1.40821371       0.00000000
Si       1.28723581      -1.45378477      -1.32368150       0.00000000
Si      -1.42671079      -1.39258324       1.28028923       0.00000000
Si      -2.18202923      -0.59103379      -2.59547696       0.00000000
Si      -0.54719740      -2.32326353      -2.52135242       0.00000000
Si       2.62260857       2.64991061      -0.11883640       0.00000000
Si       2.63006939      -0.03391578       2.68679619       0.00000000
Si      -0.10643886       2.68855049       2.64808071       0.00000000
Si       2.53627157      -2.82528876       0.08887640       0.00000000
