10
Lattice="16.290000149 0.0 0.0 0.0 16.290000149 0.0 0.0 0.0 29.1751946751" Properties=species:S:1:pos:R:3:initial_magmoms:R:1 pbc="T T T"
Si       1.67570345      -1.68006917      -0.25615821       0.00000000
Si      -1.86123026      -0.84304009      -1.25456255       0.00000000
Si      -0.63076510       0.32361714       2.33564938       0.00000000
Si       0.69120100       1.86100220      -1.42214486       0.00000000
H        2.21270330       0.78561784       1.12251562       0.00000000
H       -1.06243381       2.49794120       0.10768564       0.00000000
H       -2.61174314      -0.28308762       1.24761885       0.00000000
H        0.60256711      -1.62303787       2.55271283       0.00000000
H       -0.49420602       2.37350189      -2.22110757       0.00000000
H       -3.25982451       0.14305878       1.19198175       0.00000000
