10
Lattice="16.290000149 0.0 0.0 0.0 16.290000149 0.0 0.0 0.0 29.1751946751" Properties=species:S:1:pos:R:3:initial_magmoms:R:1 pbc="T T T"
Si      -0.92780510       0.81587325       1.99666280       0.00000000
Si       1.36374180       1.38250462      -1.33461928       0.00000000
Si      -1.86726570      -0.90311761      -1.12038583       0.00000000
Si       1.84144605      -1.17649150       0.93214747       0.00000000
H        2.64335389       1.41550816      -0.51205384       0.00000000
H       -2.91963229       0.20544134      -1.10110102       0.00000000
Si       0.52351499      -2.60181765       2.27948714       0.00000000
Si       1.96536408      -0.13727257      -3.09160785       0.00000000
Si       0.40830071       2.79220865       2.48097103       0.00000000
Si      -0.64316211      -1.00846944       3.56806796       0.00000000
