10
Lattice="16.290000149 0.0 0.0 0.0 16.290000149 0.0 0.0 0.0 29.1751946751" Properties=species:S:1:pos:R:3:initial_magmoms:R:1 pbc="T T T"
Si       1.35503479      -1.36663327       1.33715752       0.00000000
Si      -1.35550720      -1.36793647      -1.33774103       0.00000000
Si       1.37516923       1.33657822      -1.36178139       0.00000000
Si      -1.37787337       1.34589610       1.35755098       0.00000000
Si       2.64846080       0.06981894       2.65053726       0.00000000
Si       0.02850750      -2.72285886      -2.67233113       0.00000000
Si      -2.68383128      -0.00728163      -2.71192187       0.00000000
Si      -2.70709829       2.70500339      -0.00790648       0.00000000
Si      -2.70276678      -2.72173160       0.03833621       0.00000000
Si       0.03225420       2.71977842      -2.70524075       0.00000000
