10
Lattice="16.290000149 0.0 0.0 0.0 16.290000149 0.0 0.0 0.0 29.1751946751" Properties=species:S:1:pos:R:3:initial_magmoms:R:1 pbc="T T T"
H       -0.14828787       1.36870047       0.64868128       0.00000000
Si       0.83153935      -1.24849982       1.71321119       0.00000000
Si       1.90128737       0.00790717      -1.32773393       0.00000000
Si      -1.90368200      -0.53713180      -1.27968239       0.00000000
Si      -0.63338779       2.60445988      -1.73312326       0.00000000
Si      -2.63896373       1.65028942      -0.88339572       0.00000000
Si       0.68025412       1.08652509      -2.97409017       0.00000000
Si       1.86934268       0.60235045       2.67293506       0.00000000
Si       2.33637698      -2.28109035      -1.02997190       0.00000000
Si      -0.99896797      -2.27059959       2.66080401       0.00000000
