10
Lattice="16.290000149 0.0 0.0 0.0 16.290000149 0.0 0.0 0.0 29.1751946751" Properties=species:S:1:pos:R:3:initial_magmoms:R:1 pbc="T T T"
Si      -2.19349739       0.72539371       0.46630714       0.00000000
Si      -0.26956692      -2.02742084       1.20073431       0.00000000
Si       1.57607380       1.31134501       1.20362266       0.00000000
Si      -0.28595466       0.88712083      -2.24147186       0.00000000
H        2.24839469      -0.95003281      -1.63532801       0.00000000
H        0.80878222      -1.86064382      -2.18408425       0.00000000
H        1.61593543      -2.60719823      -0.53060927       0.00000000
H        1.04770765      -2.48275892       1.79818395       0.00000000
Si      -2.14984019       2.87098384      -0.51374600       0.00000000
Si      -2.41302143      -0.08174322      -2.92198327       0.00000000
