10
Lattice="16.290000149 0.0 0.0 0.0 16.290000149 0.0 0.0 0.0 29.1751946751" Properties=species:S:1:pos:R:3:initial_magmoms:R:1 pbc="T T T"
Si      -1.34713414      -1.35689185      -1.36207314       0.00000000
Si      -1.36958176       1.36329382       1.33660319       0.00000000
Si       1.35088084       1.37642356      -1.34628936       0.00000000
Si       1.34605900      -1.35912358       1.36890013       0.00000000
Si      -0.00447975       2.71889876       2.68324265       0.00000000
Si      -2.70659981      -2.70156620       0.01044472       0.00000000
Si      -2.70387938       0.01014867      -2.71375991       0.00000000
Si       0.03060891      -2.70471017      -2.71408083       0.00000000
Si       2.76943035       0.04579119      -2.64799902       0.00000000
Si       2.71710686      -2.70457985       0.03022550       0.00000000
