10
Lattice="16.290000149 0.0 0.0 0.0 16.290000149 0.0 0.0 0.0 29.1751946751" Properties=species:S:1:pos:R:3:initial_magmoms:R:1 pbc="T T T"
Si       1.34359921       1.37816659      -1.31387572       0.00000000
Si      -1.36464589       1.36961434       1.34448050       0.00000000
Si       1.54504135      -1.32481684       1.18512558       0.00000000
Si      -1.40864518      -1.32537070      -1.35650068       0.00000000
Si       2.57282633       2.81137710       0.11287883       0.00000000
Si       2.62783766      -2.74476729      -0.31310819       0.00000000
Si      -0.05677065       2.71949498      -2.67413999       0.00000000
Si       2.64793952       0.03228678      -2.74570675       0.00000000
Si      -2.71078634       0.07874586       2.71574382       0.00000000
Si      -2.78477553      -2.64572408       0.00706040       0.00000000
