10
Lattice="16.290000149 0.0 0.0 0.0 16.290000149 0.0 0.0 0.0 29.1751946751" Properties=species:S:1:pos:R:3:initial_magmoms:R:1 pbc="T T T"
Si      -1.48730959       1.79980067      -0.11678830       0.00000000
Si       1.12541095      -1.11451294      -1.75340002       0.00000000
Si      -1.65807767      -1.52849071       0.72619977       0.00000000
Si       1.86123026       0.84304009       1.25456255       0.00000000
H       -0.75051289       0.55995247       2.50218140       0.00000000
H       -1.39859425       0.98609887       2.44654430       0.00000000
Si       2.46690875      -2.53066781      -0.38344958       0.00000000
H        1.36702423       3.21654198      -0.96654502       0.00000000
H        0.79879645       3.34098129       1.36224819       0.00000000
Si       2.55243125       2.70404228      -0.16758232       0.00000000
