10
Lattice="16.290000149 0.0 0.0 0.0 16.290000149 0.0 0.0 0.0 29.1751946751" Properties=species:S:1:pos:R:3:initial_magmoms:R:1 pbc="T T T"
Si       1.37104786      -1.34545627      -1.33867463       0.00000000
Si       1.37850868       1.33534018       1.34445132       0.00000000
Si      -1.34969167      -1.36471105       1.35685078       0.00000000
Si      -1.34605900       1.35912358      -1.36890013       0.00000000
Si       0.00000000       2.70124040       2.65648900       0.00000000
Si      -0.01565469      -2.69462666      -2.66346187       0.00000000
Si      -2.72091872      -0.00824274       2.68969037       0.00000000
Si       2.74133010       0.01308087      -2.67647401       0.00000000
Si      -2.69319314       0.00223173      -2.73097327       0.00000000
Si       2.73473265       2.69114060      -0.01307049       0.00000000
