10
Lattice="16.290000149 0.0 0.0 0.0 16.290000149 0.0 0.0 0.0 29.1751946751" Properties=species:S:1:pos:R:3:initial_magmoms:R:1 pbc="T T T"
Si      -1.39554802       1.28288638      -1.35965160       0.00000000
Si       1.43813008      -1.37081980      -1.23241857       0.00000000
Si      -1.37538100      -1.32027193       1.35609222       0.00000000
Si       0.87835681       1.88872778       1.07023367       0.00000000
Si      -2.43555050       0.14460633       2.83375748       0.00000000
Si       0.05489730      -2.72098388      -2.57269784       0.00000000
Si      -2.57885363       2.73426023       0.05242782       0.00000000
Si      -0.01185912       2.61835688      -2.70071860       0.00000000
Si       2.77923693      -0.03795570      -2.60557829       0.00000000
Si      -2.74587501      -0.06006123      -2.67206855       0.00000000
