10
Lattice="16.290000149 0.0 0.0 0.0 16.290000149 0.0 0.0 0.0 29.1751946751" Properties=species:S:1:pos:R:3:initial_magmoms:R:1 pbc="T T T"
Si       1.36735003       1.35811360       1.32898847       0.00000000
Si       1.37122705      -1.35646831      -1.33283959       0.00000000
Si      -1.34291503       1.38320020      -1.34345936       0.00000000
Si      -1.37516923      -1.33657822       1.36178139       0.00000000
Si      -0.07048683       2.69276960       2.61021714       0.00000000
Si      -0.00219915      -2.70392825      -2.67559875       0.00000000
Si      -2.69052158       0.02106297      -2.69362902       0.00000000
Si      -0.02013444      -2.70321149       2.69893891       0.00000000
Si       2.72091872       0.00824274      -2.68969037       0.00000000
Si       2.72091872       2.70948314      -0.03320137       0.00000000
