10
Lattice="16.290000149 0.0 0.0 0.0 16.290000149 0.0 0.0 0.0 29.1751946751" Properties=species:S:1:pos:R:3:initial_magmoms:R:1 pbc="T T T"
Si       1.44446689      -1.19143432      -1.35991505       0.00000000
Si      -1.34329133      -1.46419408       1.23418280       0.00000000
Si      -1.35969862       1.23810517      -1.45744773       0.00000000
Si       1.42952896       1.35718507       1.27965817       0.00000000
Si      -2.70366761      -0.00695583       2.52241935       0.00000000
Si       0.09024660      -2.54317853      -2.69984422       0.00000000
Si      -2.52637572       2.83145338      -0.16886690       0.00000000
Si       0.09971109       2.67041972       2.70001752       0.00000000
Si       2.71777475      -2.68247432      -0.01528051       0.00000000
Si       2.75680560      -0.03754845       2.65112572       0.00000000
