10
Lattice="16.290000149 0.0 0.0 0.0 16.290000149 0.0 0.0 0.0 29.1751946751" Properties=species:S:1:pos:R:3:initial_magmoms:R:1 pbc="T T T"
Si      -1.22103325       1.07861792      -1.64635624       0.00000000
Si      -1.90128737      -0.00790717       1.32773393       0.00000000
Si       0.43508961      -2.28899752       0.29776204       0.00000000
Si       1.56807541       1.69600893       0.43587741       0.00000000
H        1.82034236       0.57506470      -2.38413856       0.00000000
H       -2.04957524       1.36079331       1.97641521       0.00000000
Si      -1.06974802      -1.25640699       3.04094513       0.00000000
Si       2.04146282      -2.46357745      -1.38503402       0.00000000
Si       0.84580939       2.31983449       2.62325670       0.00000000
Si      -2.53467515       2.59655272      -0.40538933       0.00000000
