10
Lattice="16.290000149 0.0 0.0 0.0 16.290000149 0.0 0.0 0.0 29.1751946751" Properties=species:S:1:pos:R:3:initial_magmoms:R:1 pbc="T T T"
Si      -0.22286349       2.13232844       0.91709307       0.00000000
Si      -1.81424990      -0.75603520      -1.38129959       0.00000000
Si       0.33860394      -1.95699917       1.35340811       0.00000000
Si       2.12731112       0.58481101      -0.99677053       0.00000000
H        2.21602646      -0.22889079       1.56656208       0.00000000
H       -1.36112725       2.20442798       1.91357184       0.00000000
H        2.86410783      -0.65503720       1.62219917       0.00000000
H       -1.04137084      -1.08559819       3.01172617       0.00000000
Si       1.95654305      -2.74348038      -0.15378245       0.00000000
H        1.07939170      -1.87670576       2.65914394       0.00000000
