10
Lattice="16.290000149 0.0 0.0 0.0 16.290000149 0.0 0.0 0.0 29.1751946751" Properties=species:S:1:pos:R:3:initial_magmoms:R:1 pbc="T T T"
H        0.14491584      -1.76682971      -1.22804229       0.00000000
Si       1.39883860       1.39510819      -1.21926056       0.00000000
Si      -0.97366960       1.30754944       1.71739711       0.00000000
Si       1.77274298      -1.57970647      -0.03197601       0.00000000
Si      -1.61557705      -0.78594364      -1.59988015       0.00000000
Si      -0.15053589       2.69669549      -2.34104680       0.00000000
Si      -2.05374548       1.24080931      -2.68890264       0.00000000
Si       0.69229243      -3.41967828      -1.07376386       0.00000000
Si      -2.41572557       2.69809643       0.46963311       0.00000000
Si       2.37439784      -2.02812131       2.10937825       0.00000000
