10
Lattice="16.290000149 0.0 0.0 0.0 16.290000149 0.0 0.0 0.0 29.1751946751" Properties=species:S:1:pos:R:3:initial_magmoms:R:1 pbc="T T T"
Si      -1.38745189      -1.34708527      -1.27318799       0.00000000
Si       1.32761628      -1.41204979       1.30801150       0.00000000
Si      -1.42952896       1.35900955       1.26617427       0.00000000
Si       1.29285586       1.31233870      -1.47281634       0.00000000
Si       2.62215408       2.67356369      -0.09473186       0.00000000
Si       2.65996643      -0.03437190       2.65386323       0.00000000
Si      -0.07340274       2.70806591       2.62042846       0.00000000
Si      -0.13051548      -2.74823706      -2.64097655       0.00000000
Si      -2.75460645      -0.02883330       2.64770727       0.00000000
Si       2.67725827      -2.73786033      -0.10024597       0.00000000
