10
Lattice="16.290000149 0.0 0.0 0.0 16.290000149 0.0 0.0 0.0 29.1751946751" Properties=species:S:1:pos:R:3:initial_magmoms:R:1 pbc="T T T"
Si       0.81974539      -0.97941997      -1.94257199       0.00000000
Si      -1.32494716      -1.33503067       1.40318099       0.00000000
Si       1.59382990       1.13301838       1.33648649       0.00000000
Si      -1.50076513       1.31546638      -1.29307380       0.00000000
H        1.26886069       0.30636603      -2.60289417       0.00000000
H        0.69388885       1.87602158       2.31461407       0.00000000
Si      -2.52636725       2.80834716       0.17677250       0.00000000
Si      -1.05779116      -1.69248215      -3.21300584       0.00000000
Si      -2.52322328       0.14923269       2.82570513       0.00000000
Si      -2.88743511      -2.48523500      -0.04420042       0.00000000
