10
Lattice="16.290000149 0.0 0.0 0.0 16.290000149 0.0 0.0 0.0 29.1751946751" Properties=species:S:1:pos:R:3:initial_magmoms:R:1 pbc="T T T"
Si       1.13826702      -0.96431914      -0.29233545       0.00000000
Si      -1.88865121       1.63963738      -0.26289768       0.00000000
H       -1.14009313      -1.80548588       1.90797021       0.00000000
Si      -1.52567743       1.40442607       2.09632526       0.00000000
Si      -0.17737367      -2.66611916      -1.42856341       0.00000000
Si       2.42951832      -0.81419050       1.73087677       0.00000000
Si       2.61742347       0.23872995      -1.67827390       0.00000000
Si      -0.24889980       2.69705387      -1.69338665       0.00000000
Si      -1.07234302      -0.73342468       2.97298151       0.00000000
Si      -2.95867616      -0.05400135      -1.64475160       0.00000000
