10
Lattice="16.290000149 0.0 0.0 0.0 16.290000149 0.0 0.0 0.0 29.1751946751" Properties=species:S:1:pos:R:3:initial_magmoms:R:1 pbc="T T T"
Si      -1.34640109      -1.34801380       1.36878343       0.00000000
Si       1.35177679      -1.36899532      -1.35857212       0.00000000
Si      -1.36532844       1.34788348      -1.37263456       0.00000000
Si       1.33120252       1.34543998       1.41435509       0.00000000
Si      -2.64722325       2.69246009       0.08408291       0.00000000
Si       0.04693149       2.73852822      -2.62941442       0.00000000
Si       2.70402599       0.03056004      -2.67830621       0.00000000
Si      -2.71156826      -2.67748958      -0.00983204       0.00000000
Si       2.71831232       2.70557354       0.11042811       0.00000000
Si       0.00392589      -2.70720254       2.72936864       0.00000000
