10
Lattice="16.290000149 0.0 0.0 0.0 16.290000149 0.0 0.0 0.0 29.1751946751" Properties=species:S:1:pos:R:3:initial_magmoms:R:1 pbc="T T T"
Si      -1.33387408      -1.33928236       1.32783605       0.00000000
Si       1.49726278      -1.23445947      -1.28317758       0.00000000
Si      -1.24903576       1.37150398      -1.41255790       0.00000000
Si       1.42157944       1.43151634       1.23295831       0.00000000
Si       0.67663774       2.15920694      -2.50609379       0.00000000
H       -0.52036776      -0.46810944      -3.30743136       0.00000000
Si       2.37501686       0.49093173      -2.66058987       0.00000000
Si       0.10256184      -2.68389155       2.58744590       0.00000000
Si      -2.66318696       0.08366544       2.61093193       0.00000000
Si      -2.69260670      -2.61783907      -0.08806824       0.00000000
