10
Lattice="16.290000149 0.0 0.0 0.0 16.290000149 0.0 0.0 0.0 29.1751946751" Properties=species:S:1:pos:R:3:initial_magmoms:R:1 pbc="T T T"
Si      -2.06764085       0.72472582      -0.84622652       0.00000000
Si      -0.78105664      -1.49616972       1.70931631       0.00000000
Si       0.91805554       2.07896403       0.81559257       0.00000000
Si       1.05353947      -0.67033188      -2.06863800       0.00000000
H       -1.38965104       2.27750655       1.73332749       0.00000000
Si      -1.31020471       1.31096057      -2.99894744       0.00000000
Si      -2.66926313       2.24450301       0.91076205       0.00000000
H        0.38876085      -3.58207166      -0.53227225       0.00000000
Si      -2.32453415      -2.80596719       0.52045630       0.00000000
Si      -3.35436515      -1.26154485      -0.96184782       0.00000000
