10
Lattice="16.290000149 0.0 0.0 0.0 16.290000149 0.0 0.0 0.0 29.1751946751" Properties=species:S:1:pos:R:3:initial_magmoms:R:1 pbc="T T T"
Si      -2.23247936       0.50709141      -0.32839599       0.00000000
Si       0.88863580      -1.42213330       1.59398676       0.00000000
Si       0.55964296      -1.03363309      -2.01087112       0.00000000
Si       1.24051609       1.79006576      -0.84380498       0.00000000
H       -0.01570356      -1.49289706       2.81388918       0.00000000
Si       0.60330016       1.11195704      -2.99092426       0.00000000
Si       2.77830840      -0.08039115       1.97746552       0.00000000
Si       3.29875761       1.17450738       0.04352939       0.00000000
Si       1.17056683       1.45107738       3.05904834       0.00000000
Si      -1.06082110      -2.72144000      -2.08094994       0.00000000
