10
Lattice="16.290000149 0.0 0.0 0.0 16.290000149 0.0 0.0 0.0 29.1751946751" Properties=species:S:1:pos:R:3:initial_magmoms:R:1 pbc="T T T"
H        1.27961209       0.03300354       0.82256544       0.00000000
Si      -1.36374180      -1.38250462       1.33461928       0.00000000
Si       0.60162229      -1.51977719      -1.75698857       0.00000000
Si      -0.78868199       2.26328375       0.21303727       0.00000000
Si       0.52243659       1.99444988      -1.70006777       0.00000000
Si       0.47770425      -2.55899612       2.26676675       0.00000000
Si       2.73168641       1.91285327      -0.89229415       0.00000000
H       -3.04717485       1.00315450      -1.52297434       0.00000000
Si       3.58731867      -0.16553898      -0.09516948       0.00000000
Si       2.66926313      -2.24450301      -0.91076205       0.00000000
