10
Lattice="16.290000149 0.0 0.0 0.0 16.290000149 0.0 0.0 0.0 29.1751946751" Properties=species:S:1:pos:R:3:initial_magmoms:R:1 pbc="T T T"
Si      -1.35992016      -1.35055504       1.35352481       0.00000000
Si      -1.38882025       1.34912152      -1.33056393       0.00000000
Si       1.31825197      -1.36270738      -1.39066483       0.00000000
Si       1.36976095       1.36138789       1.35224110       0.00000000
Si      -0.01332522       2.69733080      -2.68146297       0.00000000
Si       0.01060479      -2.69299766       2.71034641       0.00000000
Si       2.68535765      -2.72046260      -0.06301842       0.00000000
Si       2.68653053      -0.01839141      -2.73339481       0.00000000
Si      -2.69848945       0.01249443       2.72613019       0.00000000
Si      -2.70319362      -0.01713708      -2.72481731       0.00000000
