10
Lattice="16.290000149 0.0 0.0 0.0 16.290000149 0.0 0.0 0.0 29.1751946751" Properties=species:S:1:pos:R:3:initial_magmoms:R:1 pbc="T T T"
Si      -0.53962254      -0.24562062       1.38698875       0.00000000
H       -0.69141277      -0.89897995      -1.62237423       0.00000000
H       -1.61497432       0.85972105      -1.16671604       0.00000000
H        1.26658009       1.77147236       0.43920338       0.00000000
Si       0.44685099      -0.97107949      -2.61885300       0.00000000
Si       2.17091945       1.84223612      -0.78069903       0.00000000
Si       2.50903469      -0.28201248      -1.70870363       0.00000000
Si       1.14844501      -1.16993152       2.70553250       0.00000000
Si      -2.34155720      -1.84160081       1.27189261       0.00000000
Si      -1.39035151       1.63167158       2.50010996       0.00000000
