10
Lattice="16.290000149 0.0 0.0 0.0 16.290000149 0.0 0.0 0.0 29.1751946751" Properties=species:S:1:pos:R:3:initial_magmoms:R:1 pbc="T T T"
Si      -1.32206383      -1.32269914       1.36728791       0.00000000
Si       1.25897266      -1.42535872      -1.33289678       0.00000000
Si      -1.14150547       1.50275251      -1.37870183       0.00000000
Si       1.50171321       1.38877138       1.16653340       0.00000000
Si       1.93329722       0.33997230      -2.84070001       0.00000000
H       -2.30202137       0.95814523      -2.44117490       0.00000000
Si       0.51998658       2.28887534      -2.83422312       0.00000000
Si       0.10130751       2.73787662       2.53544812       0.00000000
Si       0.12545418      -2.70935282       2.59097727       0.00000000
Si      -2.57900024       0.07845264       2.73507647       0.00000000
