10
Lattice="16.290000149 0.0 0.0 0.0 16.290000149 0.0 0.0 0.0 29.1751946751" Properties=species:S:1:pos:R:3:initial_magmoms:R:1 pbc="T T T"
H        0.74078776       0.08029341       1.30573584       0.00000000
H       -1.37997478       0.87140098       1.65831807       0.00000000
Si       1.61793910      -0.78648121      -1.50719056       0.00000000
Si      -1.87245407      -1.46043109      -0.13875723       0.00000000
Si      -0.33860394       1.95699917      -1.35340811       0.00000000
H        1.87742252       1.72810838       0.21315397       0.00000000
H        2.52550388       1.30196197       0.26879107       0.00000000
Si      -0.77574610       0.96161500       3.05598494       0.00000000
Si       0.12862584      -1.80033824      -2.97236883       0.00000000
Si      -0.98945461      -3.24091182      -1.41668910       0.00000000
