10
Lattice="16.290000149 0.0 0.0 0.0 16.290000149 0.0 0.0 0.0 29.1751946751" Properties=species:S:1:pos:R:3:initial_magmoms:R:1 pbc="T T T"
Si       1.32929822       1.36122499       1.37808449       0.00000000
Si      -1.29285586      -1.31233870       1.47281634       0.00000000
Si      -1.38544822       1.36166482      -1.35647150       0.00000000
Si       1.40040570      -1.34910523      -1.36891472       0.00000000
Si      -0.10130751      -2.73787662      -2.53544812       0.00000000
Si       0.07035847       2.53961102      -2.77678416       0.00000000
Si      -2.68030775      -2.65942397       0.19962835       0.00000000
Si       2.67318902       2.69081480      -0.00430626       0.00000000
Si       2.69606018       0.01216863       2.74377535       0.00000000
Si       2.75840202      -2.68980482       0.01037762       0.00000000
