10
Lattice="16.290000149 0.0 0.0 0.0 16.290000149 0.0 0.0 0.0 29.1751946751" Properties=species:S:1:pos:R:3:initial_magmoms:R:1 pbc="T T T"
Si       1.31430979       1.34120458       1.39892433       0.00000000
Si      -1.35799631       1.34069959      -1.37929234       0.00000000
Si       1.42017850      -1.38070783      -1.28423372       0.00000000
Si      -1.37399961      -1.36039420       1.36219276       0.00000000
Si       0.03383433      -2.65548179      -2.66473508       0.00000000
Si       2.66647754       2.65924478       0.00258784       0.00000000
Si       0.12533526       2.54288531      -2.81610357       0.00000000
Si       2.62197326      -2.77909032       0.15566717       0.00000000
Si      -2.85970953      -0.04807179      -2.54582574       0.00000000
Si       2.67105503      -0.02583594       2.75061110       0.00000000
