10
Lattice="16.290000149 0.0 0.0 0.0 16.290000149 0.0 0.0 0.0 29.1751946751" Properties=species:S:1:pos:R:3:initial_magmoms:R:1 pbc="T T T"
Si       1.42604290       1.38934153       1.17964065       0.00000000
Si      -1.31958775       1.44096454      -1.27618137       0.00000000
Si       1.43448112      -1.32155884      -1.28230816       0.00000000
Si      -1.38368890      -1.33547050       1.34106700       0.00000000
Si       0.05738967      -2.66170457      -2.61476847       0.00000000
Si      -2.66825315       0.07916940      -2.62433794       0.00000000
Si       0.01185912      -2.61835688       2.70071860       0.00000000
Si      -2.56699451       0.11590335       2.75314642       0.00000000
Si       2.72101646       0.09554085       2.60636602       0.00000000
Si       0.06924879       2.80069086      -2.58964863       0.00000000
