10
Lattice="16.290000149 0.0 0.0 0.0 16.290000149 0.0 0.0 0.0 29.1751946751" Properties=species:S:1:pos:R:3:initial_magmoms:R:1 pbc="T T T"
Si       1.35987292      -1.35324615       1.35241615       0.00000000
Si      -1.36304947       1.36272041       1.34500565       0.00000000
Si       1.34946361       1.38766040      -1.33514443       0.00000000
Si      -1.34661286      -1.38812304      -1.33896638       0.00000000
Si      -2.78304879      -0.04351385      -2.59857624       0.00000000
Si       0.00004887      -2.71653997       2.69494191       0.00000000
Si       2.79150330       0.05563687      -2.61864877       0.00000000
Si      -0.00317655       2.70623818       2.70839167       0.00000000
Si      -0.02759526       2.72728486      -2.69345397       0.00000000
Si      -2.72717408       0.01560908       2.69584634       0.00000000
