10
Lattice="16.290000149 0.0 0.0 0.0 16.290000149 0.0 0.0 0.0 29.1751946751" Properties=species:S:1:pos:R:3:initial_magmoms:R:1 pbc="T T T"
Si      -0.55964296       1.03363309       2.01087112       0.00000000
Si      -1.62046405      -1.68780692      -0.07007882       0.00000000
Si       2.19349739      -0.72539371      -0.46630714       0.00000000
Si       0.04365720       2.14559013      -0.98005314       0.00000000
Si       0.68087314       2.82369885       1.16706614       0.00000000
Si       1.90754273       0.16172712      -2.70777899       0.00000000
Si       1.92393047      -2.75281455       0.73442718       0.00000000
Si      -3.44329878      -0.23091075       0.09610309       0.00000000
Si      -0.21952404      -0.80713693      -3.38829041       0.00000000
Si      -2.79212232       1.54072450       1.68247513       0.00000000
