10
Lattice="16.290000149 0.0 0.0 0.0 16.290000149 0.0 0.0 0.0 29.1751946751" Properties=species:S:1:pos:R:3:initial_magmoms:R:1 pbc="T T T"
Si       1.33676882       1.35058762      -1.36992127       0.00000000
Si      -1.37901314       1.39590771       1.29762513       0.00000000
Si       1.34704781      -1.35255871       1.38658030       0.00000000
Si      -1.37988398      -1.35969373      -1.35682160       0.00000000
Si      -0.11889745      -2.73424394       2.60143541       0.00000000
Si      -2.69077082       0.05810643       2.66273249       0.00000000
Si       2.68564599      -2.68343543      -0.02182305       0.00000000
Si       2.68054722       2.69676880       0.01873047       0.00000000
Si      -0.06924879       2.68868244      -2.70308179       0.00000000
Si       2.68836642      -0.01080027      -2.73071070       0.00000000
