10
Lattice="16.290000149 0.0 0.0 0.0 16.290000149 0.0 0.0 0.0 29.1751946751" Properties=species:S:1:pos:R:3:initial_magmoms:R:1 pbc="T T T"
Si      -1.19210221      -1.14800616      -1.69043995       0.00000000
Si       0.56962873      -1.73737250       1.52256588       0.00000000
Si      -1.99464536       0.88455190       0.97334284       0.00000000
Si       1.43855037       1.42541248      -1.34389699       0.00000000
H        0.47583090       2.28604577       1.99263662       0.00000000
Si      -2.48249828      -2.58671682      -0.40894870       0.00000000
Si      -2.73533538       2.21243126      -0.81165392       0.00000000
Si      -2.62619237       0.47977797      -2.61707331       0.00000000
Si      -3.51295482      -0.96452765       0.90813628       0.00000000
H       -0.76036834       0.10582799       3.74912922       0.00000000
