10
Lattice="16.290000149 0.0 0.0 0.0 16.290000149 0.0 0.0 0.0 29.1751946751" Properties=species:S:1:pos:R:3:initial_magmoms:R:1 pbc="T T T"
Si       1.49143096      -1.26469045      -1.28385444       0.00000000
Si      -1.34149780       1.41615487      -1.36995044       0.00000000
Si      -1.39258324      -1.82509904       0.74843127       0.00000000
Si       1.07002495       1.69363874       1.38185392       0.00000000
H        2.95867616       0.05400135       1.64475160       0.00000000
Si      -2.46690875       2.53066781       0.38344958       0.00000000
Si       0.06512742      -2.53628786      -2.68875677       0.00000000
Si      -0.60567850       3.37370790       1.63801213       0.00000000
Si       2.78130250      -2.61211781       0.21618819       0.00000000
Si      -3.14924799      -0.85489921       2.01693956       0.00000000
