10
Lattice="16.290000149 0.0 0.0 0.0 16.290000149 0.0 0.0 0.0 29.1751946751" Properties=species:S:1:pos:R:3:initial_magmoms:R:1 pbc="T T T"
Si      -1.34760655      -1.36213723      -1.35016966       0.00000000
Si       1.34291503      -1.38320020       1.34345936       0.00000000
Si      -1.38888541       1.35070165       1.33330640       0.00000000
Si       1.34819299       1.34745994      -1.37852795       0.00000000
Si       2.71026506      -0.02508660       2.67244783       0.00000000
Si      -0.03771135       2.73686664       2.65625560       0.00000000
Si      -2.69170587      -0.00379557      -2.71151342       0.00000000
Si       2.71329500       2.70306488      -0.03188849       0.00000000
Si       0.01117494      -2.71740008      -2.70468642       0.00000000
Si      -0.03225420      -2.71977842       2.70524075       0.00000000
