10
Lattice="16.290000149 0.0 0.0 0.0 16.290000149 0.0 0.0 0.0 29.1751946751" Properties=species:S:1:pos:R:3:initial_magmoms:R:1 pbc="T T T"
Si       0.27531078      -0.82005490      -2.15423802       0.00000000
Si      -2.26827501       0.48578409      -0.12043520       0.00000000
Si       1.28672431       1.98627067       0.11562130       0.00000000
Si       1.02983100      -1.54442233       1.48230412       0.00000000
Si      -2.54590548       1.22042563       2.08684332       0.00000000
Si       3.35436515       1.26154485       0.96184782       0.00000000
Si       2.57330852      -0.23462487       2.67116412       0.00000000
Si       1.19704786       0.91111600      -3.43281176       0.00000000
Si       1.92669325      -2.47446731      -2.05848504       0.00000000
Si       2.38660883      -2.89670412       0.15497863       0.00000000
