10
Lattice="16.290000149 0.0 0.0 0.0 16.290000149 0.0 0.0 0.0 29.1751946751" Properties=species:S:1:pos:R:3:initial_magmoms:R:1 pbc="T T T"
Si       0.87812875      -0.86113828       0.88412510       0.00000000
H       -1.90151543      -0.43875486      -1.24073350       0.00000000
Si       0.89249653       0.97375105      -2.07715716       0.00000000
Si      -0.99717607      -0.36799110      -2.46063592       0.00000000
Si      -0.71524504       2.50521958      -0.99557434       0.00000000
Si      -1.45977949       2.17890155       1.26208975       0.00000000
Si       1.90373087      -2.35401905      -0.58572121       0.00000000
Si      -0.51774507      -2.09419355       2.30942088       0.00000000
Si       2.78027949       0.43494300       1.51180024       0.00000000
Si       2.82237285      -0.52103565      -1.76011032       0.00000000
