10
Lattice="16.290000149 0.0 0.0 0.0 16.290000149 0.0 0.0 0.0 29.1751946751" Properties=species:S:1:pos:R:3:initial_magmoms:R:1 pbc="T T T"
Si       1.35982405       1.36329382      -1.34252576       0.00000000
Si      -1.35291709       1.38500839       1.33721587       0.00000000
Si       1.38719125      -1.34275213       1.34687286       0.00000000
Si      -1.35762490      -1.36272367      -1.35760933       0.00000000
Si      -2.70800075       0.02994102       2.67133917       0.00000000
Si       0.04929354      -2.79005349       2.60298169       0.00000000
Si       2.69153156       2.71828300       0.04078692       0.00000000
Si      -0.00004887       2.71653997      -2.69494191       0.00000000
Si       2.71070489       0.00275301      -2.70281921       0.00000000
Si      -2.72639216      -0.01301571      -2.69745097       0.00000000
