10
Lattice="16.290000149 0.0 0.0 0.0 16.290000149 0.0 0.0 0.0 29.1751946751" Properties=species:S:1:pos:R:3:initial_magmoms:R:1 pbc="T T T"
Si       0.62765371      -0.40327524       2.14805288       0.00000000
Si       1.83080054       0.82516996      -1.16458625       0.00000000
Si      -0.87835681      -1.88872778      -1.07023367       0.00000000
Si      -1.60199119       1.77658742       0.08930527       0.00000000
H        2.67483431       1.76002049      -0.35517882       0.00000000
Si      -2.27390483      -0.60584140      -2.42988526       0.00000000
Si       0.53582697       2.11897064      -2.59131162       0.00000000
Si      -1.49965741      -0.98808625       3.14482341       0.00000000
Si      -3.45721044       0.84553246      -1.01780584       0.00000000
Si      -0.54696934       3.53892108      -1.09307784       0.00000000
