10
Lattice="16.290000149 0.0 0.0 0.0 16.290000149 0.0 0.0 0.0 29.1751946751" Properties=species:S:1:pos:R:3:initial_magmoms:R:1 pbc="T T T"
Si      -1.49143096       1.26469045       1.28385444       0.00000000
Si       1.29571541       1.35873262      -1.44507657       0.00000000
Si      -1.42630354      -1.27159741      -1.40490232       0.00000000
Si       1.28987153      -1.34742736       1.50004263       0.00000000
H        1.46724520       1.31869180       2.92860604       0.00000000
Si      -2.88401421      -0.56040859       2.03228571       0.00000000
Si      -2.77487121      -2.29306187       0.22686631       0.00000000
Si       2.50733076      -2.63370044      -0.10430132       0.00000000
Si       2.60551222       0.35437266       2.63627059       0.00000000
Si       2.65397334       2.77068468      -0.13318476       0.00000000
