10
Lattice="16.290000149 0.0 0.0 0.0 16.290000149 0.0 0.0 0.0 29.1751946751" Properties=species:S:1:pos:R:3:initial_magmoms:R:1 pbc="T T T"
Si      -0.74078776      -0.08029341      -1.30573584       0.00000000
H        1.13663476       1.64781497      -1.09258187       0.00000000
H       -2.12076254       0.79110757       0.35258223       0.00000000
H        1.78471613       1.22166856      -1.03694477       0.00000000
Si      -1.51653385       0.88132159       1.75024910       0.00000000
Si       0.87715135      -0.86677462      -2.81292639       0.00000000
Si       2.22961232      -2.09381888       0.32591610       0.00000000
Si       0.22993335      -2.69549003       1.49096915       0.00000000
Si       0.38667573       2.33720777       2.09810495       0.00000000
Si      -1.07836543      -1.14543136       2.83927160       0.00000000
