10
Lattice="16.290000149 0.0 0.0 0.0 16.290000149 0.0 0.0 0.0 29.1751946751" Properties=species:S:1:pos:R:3:initial_magmoms:R:1 pbc="T T T"
Si       1.16051590       0.54460728       1.06247306       0.00000000
Si      -1.28578600      -0.53942706      -0.94288394       0.00000000
Si      -0.07542270      -2.40334517      -1.60154314       0.00000000
Si      -0.37655964       1.81684001       2.25964800       0.00000000
Si       2.82200795       1.33073011      -0.39304822       0.00000000
Si      -3.04150593      -1.10881144       0.54674315       0.00000000
Si       2.30202137      -0.95814523       2.44117490       0.00000000
Si      -2.36464013       0.78213178      -2.52820567       0.00000000
Si      -1.85292236       3.01620756       0.80684001       0.00000000
H       -0.35243415       0.71210107      -3.59228337       0.00000000
