10
Lattice="16.290000149 0.0 0.0 0.0 16.290000149 0.0 0.0 0.0 29.1751946751" Properties=species:S:1:pos:R:3:initial_magmoms:R:1 pbc="T T T"
Si      -1.40471115       1.31861035       1.31335056       0.00000000
Si       1.37002974      -1.23891967       1.44458059       0.00000000
Si       1.33166679       1.39769830      -1.34200060       0.00000000
Si      -1.39167915      -1.37552761      -1.31165840       0.00000000
Si       2.56887601      -2.64124433      -0.03025468       0.00000000
Si      -0.11644092       2.72864018       2.63204019       0.00000000
Si       2.63051737       0.03994308      -2.75979837       0.00000000
Si       0.00216494      -2.66631464       2.74427716       0.00000000
Si      -2.73159682      -0.00992061      -2.68732718       0.00000000
Si      -2.72710078       2.69224832      -0.02182305       0.00000000
