10
Lattice="16.290000149 0.0 0.0 0.0 16.290000149 0.0 0.0 0.0 29.1751946751" Properties=species:S:1:pos:R:3:initial_magmoms:R:1 pbc="T T T"
Si      -1.32922492       1.35910729      -1.36545746       0.00000000
Si       1.31077486       1.42956154       1.32300755       0.00000000
Si      -1.34212823      -1.36853920       1.36297757       0.00000000
Si       1.37787337      -1.34589610      -1.35755098       0.00000000
Si       2.66553272       0.07144794       2.62664278       0.00000000
Si      -2.64978029       2.69527826       0.04160383       0.00000000
Si       2.68255577       2.68345172      -0.10911523       0.00000000
Si      -2.67151115      -0.00172674      -2.71982835       0.00000000
Si      -2.61419414      -0.00746082       2.78564759       0.00000000
Si       0.02236617      -2.71383257      -2.69529201       0.00000000
