10
Lattice="16.290000149 0.0 0.0 0.0 16.290000149 0.0 0.0 0.0 29.1751946751" Properties=species:S:1:pos:R:3:initial_magmoms:R:1 pbc="T T T"
H       -1.18540702       0.51249969      -0.79896271       0.00000000
Si       1.33279894      -1.06960141      -1.62254928       0.00000000
H       -1.75363481       0.63693901       1.52983051       0.00000000
Si       1.29888316       1.67228255       1.17494344       0.00000000
Si      -0.69120100      -1.86100220       1.42214486       0.00000000
H       -0.55294777       2.16966512      -1.90368145       0.00000000
H        1.52150230      -1.07538436       2.54466048       0.00000000
Si      -3.07090938       1.09227709       0.93238087       0.00000000
H       -1.99256024       1.25905411      -2.45243769       0.00000000
Si       2.55735083       0.03000618       2.33060208       0.00000000
