10
Lattice="16.290000149 0.0 0.0 0.0 16.290000149 0.0 0.0 0.0 29.1751946751" Properties=species:S:1:pos:R:3:initial_magmoms:R:1 pbc="T T T"
Si      -1.34024347      -1.34827444       1.37275126       0.00000000
Si       1.32366025      -1.37081980      -1.37374322       0.00000000
Si      -1.35985663       1.32533812      -1.39127751       0.00000000
Si       1.34359921       1.32716260       1.40758644       0.00000000
Si       2.69938334       2.67406868       0.01394574       0.00000000
Si       2.62800056      -2.75131587       0.00105031       0.00000000
Si      -2.73316881       2.68434767      -0.07028304       0.00000000
Si      -2.73235430       0.00496845       2.68665615       0.00000000
Si       2.67765248      -0.02293632      -2.74748643       0.00000000
Si      -0.00617391       2.70026300      -2.73400749       0.00000000
