10
Lattice="16.290000149 0.0 0.0 0.0 16.290000149 0.0 0.0 0.0 29.1751946751" Properties=species:S:1:pos:R:3:initial_magmoms:R:1 pbc="T T T"
Si       2.20043693      -0.36914769       0.80246373       0.00000000
Si       0.03178179       2.28977129       0.68109492       0.00000000
Si       0.14172300      -0.42494094      -2.35470079       0.00000000
Si      -1.51914025      -1.37847773       1.28295001       0.00000000
H       -2.16598358      -0.22639842      -1.43696586       0.00000000
H       -0.88580134       2.45175905      -1.88109985       0.00000000
Si      -0.71390926       1.65345131      -3.15182546       0.00000000
Si       0.49317975       2.05162778       2.95761873       0.00000000
Si       2.12801159       0.31939803       3.03174327       0.00000000
Si       2.44180586      -0.39073194      -2.80294848       0.00000000
