10
Lattice="16.290000149 0.0 0.0 0.0 16.290000149 0.0 0.0 0.0 29.1751946751" Properties=species:S:1:pos:R:3:initial_magmoms:R:1 pbc="T T T"
Si      -1.35961228       1.35640152       1.34016257       0.00000000
Si       1.34785090       1.37394585      -1.33739092       0.00000000
Si       1.38256489      -1.35878312       1.32280333       0.00000000
Si      -1.35547462      -1.37145674      -1.33841206       0.00000000
Si       2.67716378      -0.04900195      -2.62048681       0.00000000
Si       0.00607617      -2.71534917       2.65450509       0.00000000
Si      -2.72562653      -0.01151703      -2.65255035       0.00000000
Si       0.01381392       2.70386147       2.68292173       0.00000000
Si       2.73303849       0.01012098       2.67393577       0.00000000
Si      -2.70407486       0.00089269       2.70521158       0.00000000
