10
Lattice="16.290000149 0.0 0.0 0.0 16.290000149 0.0 0.0 0.0 29.1751946751" Properties=species:S:1:pos:R:3:initial_magmoms:R:1 pbc="T T T"
Si      -1.42954525       1.44376642       1.12152366       0.00000000
Si      -1.35946567      -1.30808701      -1.38970205       0.00000000
Si       1.34947990       1.39080763      -1.34553080       0.00000000
Si       1.33156090      -1.31505913       1.44277173       0.00000000
H       -0.58551148       2.37861695       1.93093108       0.00000000
Si      -2.70057251      -2.64095111      -0.01654234       0.00000000
Si       0.01384650      -2.66709656      -2.71069651       0.00000000
Si       2.71730234      -2.66527208       0.08816744       0.00000000
Si       2.73316881       0.04724100      -2.68114204       0.00000000
Si      -2.72451881       2.73756711      -0.30520171       0.00000000
