10
Lattice="16.290000149 0.0 0.0 0.0 16.290000149 0.0 0.0 0.0 29.1751946751" Properties=species:S:1:pos:R:3:initial_magmoms:R:1 pbc="T T T"
Si       0.45991557      -0.42223680       2.21346367       0.00000000
Si       1.83003491       1.29404503      -0.63467718       0.00000000
Si      -1.65138248       1.65441242      -0.09575299       0.00000000
Si      -0.66424105      -1.87765058      -1.29637060       0.00000000
H        1.81643276       0.15394050       2.48806060       0.00000000
Si       0.79798195       2.12138156      -2.58845245       0.00000000
Si      -2.08055067      -0.65389690      -2.67387742       0.00000000
Si      -3.42140502       0.64811395      -1.25041967       0.00000000
Si      -0.72964540       3.38558331      -1.37432672       0.00000000
Si       3.65286963      -0.16285113      -0.80085909       0.00000000
