10
Lattice="16.290000149 0.0 0.0 0.0 16.290000149 0.0 0.0 0.0 29.1751946751" Properties=species:S:1:pos:R:3:initial_magmoms:R:1 pbc="T T T"
Si      -1.36352188      -1.35006634       1.34990708       0.00000000
Si      -1.38986281       1.34828910      -1.33313135       0.00000000
Si       1.32028822      -1.36795276      -1.38383783       0.00000000
Si       1.36176256       1.34251756       1.37759434       0.00000000
Si      -0.06333552       2.70451469       2.67635731       0.00000000
Si       0.00988803      -2.70234812       2.69523366       0.00000000
Si       2.68957676      -2.71039538      -0.03066313       0.00000000
Si      -0.04540023       2.70379793      -2.69818035       0.00000000
Si       2.69692355       2.70681158       0.00860668       0.00000000
Si       2.69677694      -0.01138671      -2.71553959       0.00000000
