10
Lattice="16.290000149 0.0 0.0 0.0 16.290000149 0.0 0.0 0.0 29.1751946751" Properties=species:S:1:pos:R:3:initial_magmoms:R:1 pbc="T T T"
Si       0.54737659      -1.65284858       0.15427843       0.00000000
Si      -0.45219411      -0.56917261      -1.72014030       0.00000000
Si       1.62782713       0.18712323       1.19606628       0.00000000
Si      -1.76049290       0.98088607      -0.37183786       0.00000000
Si      -0.14491584       1.76682971       1.22804229       0.00000000
Si      -1.45819936      -2.60701904       1.00400597       0.00000000
Si       1.54748485       0.03249855      -2.88519335       0.00000000
Si       1.25392276       3.16193790       0.00878173       0.00000000
Si       3.38354706       0.75650761      -0.29356081       0.00000000
Si       2.30469293       2.07806645      -1.87888254       0.00000000
