10
Lattice="16.290000149 0.0 0.0 0.0 16.290000149 0.0 0.0 0.0 29.1751946751" Properties=species:S:1:pos:R:3:initial_magmoms:R:1 pbc="T T T"
H       -1.43611012       0.29224260       0.44964810       0.00000000
Si       0.45333441      -2.13785075       0.87665625       0.00000000
Si      -0.36297378       0.23521131      -2.35922294       0.00000000
Si       1.21891555       1.58747680       1.41750601       0.00000000
H        0.17402607       2.70089831      -0.98054912       0.00000000
H        1.52567743      -1.40442607      -2.09632526       0.00000000
H        0.38558430      -3.20991195      -0.18835506       0.00000000
Si      -0.79190578       2.95195980       1.50301850       0.00000000
Si       3.41053959       0.16690734       0.37192538       0.00000000
Si      -2.66944232       2.23889762       0.23258465       0.00000000
