10
Lattice="16.290000149 0.0 0.0 0.0 16.290000149 0.0 0.0 0.0 29.1751946751" Properties=species:S:1:pos:R:3:initial_magmoms:R:1 pbc="T T T"
H        0.64808137      -0.42614640       0.05563710       0.00000000
H       -1.13663476      -1.64781497       1.09258187       0.00000000
Si      -1.87742252      -1.72810838      -0.21315397       0.00000000
Si       0.84660760       1.72599068       1.78012450       0.00000000
Si      -0.08871534       0.81370180      -2.56333260       0.00000000
Si      -2.21602646       0.22889079      -1.56656208       0.00000000
Si       2.62905941       0.18055836       1.14366763       0.00000000
Si       1.39859425      -0.98609887      -2.44654430       0.00000000
Si      -0.25948341      -2.51458958      -1.72034453       0.00000000
Si      -0.37670625       3.05028624       0.26068036       0.00000000
