10
Lattice="16.290000149 0.0 0.0 0.0 16.290000149 0.0 0.0 0.0 29.1751946751" Properties=species:S:1:pos:R:3:initial_magmoms:R:1 pbc="T T T"
Si      -1.34856766      -1.02146446       1.63176864       0.00000000
Si       1.23211045      -1.42990363      -1.41616395       0.00000000
Si      -1.35319402       1.31072599      -1.42541249       0.00000000
Si       1.42630354       1.27159741       1.40490232       0.00000000
Si       0.08552250      -2.64924859       2.55840200       0.00000000
Si      -0.06512742       2.53628786       2.68875677       0.00000000
Si       2.72201895       2.63033003      -0.04017424       0.00000000
Si      -1.45771066       0.71118883       3.43718804       0.00000000
Si      -2.74530486       2.66396888      -0.11150759       0.00000000
Si       2.61505001      -0.09231543      -2.79711344       0.00000000
