10
Lattice="16.290000149 0.0 0.0 0.0 16.290000149 0.0 0.0 0.0 29.1751946751" Properties=species:S:1:pos:R:3:initial_magmoms:R:1 pbc="T T T"
H        2.01220598      -0.07003071      -1.06407770       0.00000000
Si       1.07885413      -1.32155884       1.58532173       0.00000000
Si       0.77887378       1.87662431      -1.28114115       0.00000000
Si      -0.75720808      -2.04556790      -1.00631081       0.00000000
Si      -1.05077017       1.08387145       1.88766427       0.00000000
H       -1.20210427       1.26991954      -2.36917168       0.00000000
H       -2.98682040       0.04825098      -1.33222691       0.00000000
H       -1.85018564       1.69606595      -2.42480878       0.00000000
H        2.36464013      -0.78213178       2.52820567       0.00000000
Si      -2.60014466       2.38545875       0.76587804       0.00000000
