10
Lattice="16.290000149 0.0 0.0 0.0 16.290000149 0.0 0.0 0.0 29.1751946751" Properties=species:S:1:pos:R:3:initial_magmoms:R:1 pbc="T T T"
Si       1.36352188       1.35006634      -1.34990708       0.00000000
Si       1.37340991      -1.35228178       1.34532658       0.00000000
Si      -1.35159760       1.36138789       1.36078943       0.00000000
Si      -1.36976095      -1.36138789      -1.35224110       0.00000000
Si      -0.02634093       2.69835545      -2.68303843       0.00000000
Si      -0.00272043      -2.67263516       2.70888765       0.00000000
Si       2.66426210      -2.72005535      -0.06710295       0.00000000
Si       2.68381010      -0.01788642      -2.73374492       0.00000000
Si       2.72528444       2.69258390       0.02768726       0.00000000
Si      -2.68836642       0.01080027       2.73071070       0.00000000
