10
Lattice="16.290000149 0.0 0.0 0.0 16.290000149 0.0 0.0 0.0 29.1751946751" Properties=species:S:1:pos:R:3:initial_magmoms:R:1 pbc="T T T"
Si      -1.54347751      -1.30979746      -1.18886001       0.00000000
Si      -1.41050224       1.18167661       1.46821250       0.00000000
Si       1.39444030      -1.31395141       1.42523744       0.00000000
Si       0.78105664       1.49616972      -1.70931631       0.00000000
H        1.16981749      -2.08590194      -2.24158856       0.00000000
Si      -1.28658421       2.22089554      -2.55554283       0.00000000
Si      -0.18669969      -2.66207924      -2.51618549       0.00000000
Si      -2.57330852       0.23462487      -2.67116412       0.00000000
Si       0.03824892       2.62159697       2.74392706       0.00000000
H       -0.60859441       3.77367627       0.02401119       0.00000000
