10
Lattice="10.86 0.0 0.0 0.0 10.86 0.0 0.0 0.0 10.86" Properties=species:S:1:pos:R:3:initial_magmoms:R:1 pbc="T T T"
Si      -1.17210894      -1.44935388      -1.46485110       0.00000000
Si       1.54289106      -1.44935388       1.25014890       0.00000000
Si       1.54289106       1.26564612      -1.46485110       0.00000000
Si      -2.50137294       0.06741888       2.62371084       0.00000000
Si       0.13723782       2.71571676       2.57901108       0.00000000
Si      -2.52960894      -2.80685388      -0.10735110       0.00000000
Si      -2.52960894      -0.09185388      -2.82235110       0.00000000
Si       0.18539106      -2.80685388       2.60764890       0.00000000
Si       0.18539106       2.62314612      -2.82235110       0.00000000
Si       2.90039106      -0.09185388       2.60764890       0.00000000
