10
Lattice="10.86 0.0 0.0 0.0 10.86 0.0 0.0 0.0 10.86" Properties=species:S:1:pos:R:3:initial_magmoms:R:1 pbc="T T T"
Si       1.40492562      -1.20651342       1.27669074       0.00000000
Si      -1.31007438      -1.20651342      -1.43830926       0.00000000
Si      -1.31007438       1.50848658       1.27669074       0.00000000
Si       0.04742562      -2.56401342       2.63419074       0.00000000
Si      -2.66757438      -2.56401342      -0.08080926       0.00000000
Si      -2.66757438       0.15098658       2.63419074       0.00000000
Si       2.76242562      -2.56401342      -0.08080926       0.00000000
Si       0.04742562      -2.56401342      -2.79580926       0.00000000
Si      -0.00362724       2.68942470      -2.70374904       0.00000000
Si       2.76242562       0.15098658       2.63419074       0.00000000
