10
Lattice="10.86 0.0 0.0 0.0 10.86 0.0 0.0 0.0 10.86" Properties=species:S:1:pos:R:3:initial_magmoms:R:1 pbc="T T T"
Si       1.44464064       1.44101340      -1.26563526       0.00000000
Si      -1.27035936       1.44101340       1.44936474       0.00000000
Si       1.44464064      -1.27398660       1.44936474       0.00000000
Si      -0.02894190      -2.60646516      -2.58591804       0.00000000
Si      -2.67891222      -0.09304848      -2.53107504       0.00000000
Si       0.08714064       2.79851340      -2.62313526       0.00000000
Si       2.80214064       0.08351340      -2.62313526       0.00000000
Si      -2.62785936       2.79851340       0.09186474       0.00000000
Si       2.80214064      -2.63148660       0.09186474       0.00000000
Si      -2.62785936       0.08351340       2.80686474       0.00000000
