10
Lattice="16.28999089631971 0.0 0.0 0.0 16.28999089631971 0.0 0.0 0.0 34.32429715621058" Properties=species:S:1:pos:R:3:initial_magmoms:R:1 pbc="T T T"
Si       1.35685926      -1.35654486      -1.35673725       0.00000000
Si      -1.35793440       1.35720135      -1.35653131       0.00000000
Si      -1.35685926      -1.35972956       1.35793860       0.00000000
Si       1.35861858       1.35780408       1.35872806       0.00000000
Si       0.00104256      -2.71455650       2.71302829       0.00000000
Si       0.00086337      -2.71326881      -2.71495045       0.00000000
Si       2.71433754       0.00096111      -2.71409234       0.00000000
Si      -0.00011403       2.71379997      -2.71471018       0.00000000
Si       2.71541268      -0.00263898       2.71313126       0.00000000
Si       2.71487511      -2.71433236      -0.00024027       0.00000000
