10
Lattice="16.28999089631971 0.0 0.0 0.0 16.28999089631971 0.0 0.0 0.0 34.32429715621058" Properties=species:S:1:pos:R:3:initial_magmoms:R:1 pbc="T T T"
Si      -1.17408546      -0.29359467       2.05966493       0.00000000
Si       2.22231438      -0.92831823       0.43379071       0.00000000
Si      -0.39662892       1.97236062      -1.41594670       0.00000000
Si       1.04254371      -1.85134384      -1.86120173       0.00000000
Si      -0.96047469      -2.73506561      -0.88515547       0.00000000
Si       0.03298725      -2.16192735       2.94231472       0.00000000
Si      -2.73610098       2.26953909      -1.16610000       0.00000000
Si      -0.86841990       1.76329476       3.18845439       0.00000000
Si      -3.71773638       0.18489150      -0.76821252       0.00000000
Si      -3.44300553      -0.63280134       1.56893018       0.00000000
