10
Lattice="16.28999089631971 0.0 0.0 0.0 16.28999089631971 0.0 0.0 0.0 34.32429715621058" Properties=species:S:1:pos:R:3:initial_magmoms:R:1 pbc="T T T"
Si       0.70587828      -2.26970918      -0.01829486       0.00000000
Si       0.40198833       0.76679799      -2.21707624       0.00000000
Si      -2.23920711       0.09508962       0.80545441       0.00000000
Si       1.38543192      -0.15977932       1.95071955       0.00000000
Si      -0.32055462       0.20217030       3.60312646       0.00000000
Si      -3.37046616      -1.51777907      -0.56391419       0.00000000
Si      -0.68229036      -0.76102712      -3.60288619       0.00000000
Si       2.76219756       1.75889646       1.86291794       0.00000000
Si      -0.16024473       3.84460290       0.43729179       0.00000000
Si       2.71401174       1.14939634      -2.65556938       0.00000000
