10
Lattice="16.28999089631971 0.0 0.0 0.0 16.28999089631971 0.0 0.0 0.0 34.32429715621058" Properties=species:S:1:pos:R:3:initial_magmoms:R:1 pbc="T T T"
Si       1.70598654      -0.36194963      -1.65240691       0.00000000
Si      -0.74516976      -1.91282297       1.29139546       0.00000000
Si       1.82301390       0.84839786       1.35939193       0.00000000
Si      -1.72180413       2.14078782      -0.10386538       0.00000000
Si      -1.91865249      -0.10708069      -2.79767205       0.00000000
Si      -2.05592832      -0.47221682       2.73421124       0.00000000
Si       0.32055462      -0.20217030      -3.60312646       0.00000000
Si       0.66570714       2.25048468       2.78509703       0.00000000
Si      -3.35206498       0.99915367       1.26332160       0.00000000
Si       3.08275218       1.55672616      -1.74020851       0.00000000
