10
Lattice="16.28999089631971 0.0 0.0 0.0 16.28999089631971 0.0 0.0 0.0 34.32429715621058" Properties=species:S:1:pos:R:3:initial_magmoms:R:1 pbc="T T T"
Si       1.69326405       1.64946024       0.42915693       0.00000000
Si       1.38629529      -1.38360744      -1.44017966       0.00000000
Si      -1.34605899       1.79489736      -1.09151326       0.00000000
Si      -0.28481436      -1.18602603       2.22411273       0.00000000
Si       2.03442552      -1.40445864       2.19977679       0.00000000
Si       1.99337472      -2.73913092       0.30754587       0.00000000
Si      -2.51848287       0.14916753      -2.59800750       0.00000000
Si       3.68790939      -0.49941882      -0.00504567       0.00000000
Si      -0.94944636      -3.52790901       1.14550541       0.00000000
Si       0.15343551       2.78703981      -2.71392072       0.00000000
