10
Lattice="16.28999089631971 0.0 0.0 0.0 16.28999089631971 0.0 0.0 0.0 34.32429715621058" Properties=species:S:1:pos:R:3:initial_magmoms:R:1 pbc="T T T"
Si       1.89286542       1.27356849      -0.49742799       0.00000000
Si      -1.44019890       0.89818173       1.60689287       0.00000000
Si      -1.36575360       0.04624731      -1.91941577       0.00000000
Si       0.99109989      -2.08031445       0.76574117       0.00000000
Si      -3.31765398      -0.76413132      -0.81781116       0.00000000
Si       2.12752287       0.47063439      -2.76005260       0.00000000
Si       3.28562784       0.53170560       1.31094861       0.00000000
Si       3.31128459      -1.69776009       0.48524286       0.00000000
Si      -0.92317059       3.17803239       1.86024065       0.00000000
Si      -1.56335130      -0.50691222       3.45354109       0.00000000
