10
Lattice="16.28999089631971 0.0 0.0 0.0 16.28999089631971 0.0 0.0 0.0 34.32429715621058" Properties=species:S:1:pos:R:3:initial_magmoms:R:1 pbc="T T T"
Si      -0.18376749      -2.33232075      -0.02838621       0.00000000
Si      -0.82349208       0.47447883       2.17513193       0.00000000
Si       2.34326763       0.32889510      -0.49433880       0.00000000
Si      -1.48646250       1.29013542      -1.40894454       0.00000000
Si      -1.70619831       3.33557298      -0.16774293       0.00000000
Si       1.20899493      -3.07418364       1.77999040       0.00000000
Si      -1.47023766       2.77047288       2.14266112       0.00000000
Si      -2.99980350      -0.42785685       2.32928243       0.00000000
Si       0.05088996      -3.13525485      -2.29101082       0.00000000
Si       2.62225017       2.20578003      -1.90657848       0.00000000
