10
Lattice="16.28999089631971 0.0 0.0 0.0 16.28999089631971 0.0 0.0 0.0 34.32429715621058" Properties=species:S:1:pos:R:3:initial_magmoms:R:1 pbc="T T T"
Si      -1.37485971       0.61545249      -1.91158983       0.00000000
Si       0.73570527       2.33171802       0.07441512       0.00000000
Si       2.16363780      -1.06287363       0.47264584       0.00000000
Si      -1.72476891      -1.78434144       0.38257883       0.00000000
Si      -0.08522928       0.12015504       2.69253667       0.00000000
Si      -2.86187607       1.36475991      -0.13008916       0.00000000
Si      -2.26844766       1.14606666       2.22857489       0.00000000
Si       1.84187772      -3.01229793      -0.74778956       0.00000000
Si      -0.26774244      -3.61585872       0.06497593       0.00000000
Si       1.68360408       2.60149671      -2.17087571       0.00000000
