10
Lattice="16.28999089631971 0.0 0.0 0.0 16.28999089631971 0.0 0.0 0.0 34.32429715621058" Properties=species:S:1:pos:R:3:initial_magmoms:R:1 pbc="T T T"
Si       1.34236116       1.34688978       1.37806638       0.00000000
Si      -1.37297007      -1.36902789       1.37786044       0.00000000
Si      -1.43110908       1.25643141      -1.45118747       0.00000000
Si       1.38702834      -1.34729703      -1.44889804       0.00000000
Si      -0.33397758      -2.37936627      -2.75514564       0.00000000
Si      -2.22588189      -0.71444682      -2.89518885       0.00000000
Si       2.68881111       2.70298729      -0.01086708       0.00000000
Si       2.69798238      -2.73580776      -0.00203200       0.00000000
Si       2.69993718      -0.00985545       2.73645120       0.00000000
Si      -2.74186764       2.69703756      -0.00837170       0.00000000
