10
Lattice="16.28999089631971 0.0 0.0 0.0 16.28999089631971 0.0 0.0 0.0 34.32429715621058" Properties=species:S:1:pos:R:3:initial_magmoms:R:1 pbc="T T T"
Si       1.35684297       1.35687555      -1.35800725       0.00000000
Si       1.35526284      -1.35982404       1.35800725       0.00000000
Si      -1.35764118      -1.35847197      -1.35804158       0.00000000
Si      -1.35734796       1.36018242       1.35701185       0.00000000
Si      -0.00079821       2.70127296       2.69682721       0.00000000
Si      -2.71538336       2.71305063      -0.00120135       0.00000000
Si      -0.00034209       2.71425609      -2.71501910       0.00000000
Si       2.71492398      -0.00105885      -2.71498477       0.00000000
Si       2.71371852       2.71635750      -0.00089243       0.00000000
Si      -2.71485719      -0.00068418      -2.71525937       0.00000000
