10
Lattice="16.28999089631971 0.0 0.0 0.0 16.28999089631971 0.0 0.0 0.0 34.32429715621058" Properties=species:S:1:pos:R:3:initial_magmoms:R:1 pbc="T T T"
Si       0.34360497       1.10454345      -2.08932114       0.00000000
Si       0.84538584      -2.23114356       0.22355427       0.00000000
Si      -2.17412856      -0.20219148       0.99403220       0.00000000
Si       0.65937033       2.07588357       1.15793081       0.00000000
Si      -1.43775540       3.00798827       0.25760399       0.00000000
Si      -0.56786940      -0.67427568      -3.30718220       0.00000000
Si      -2.37640149      -1.69873749      -1.79118012       0.00000000
Si       1.55325150       1.01491587       3.13610981       0.00000000
Si      -3.34666647       1.49283189      -0.03978188       0.00000000
Si       0.35049564      -2.73940785       2.58781318       0.00000000
