10
Lattice="16.28999089631971 0.0 0.0 0.0 16.28999089631971 0.0 0.0 0.0 34.32429715621058" Properties=species:S:1:pos:R:3:initial_magmoms:R:1 pbc="T T T"
Si       0.48664746      -2.30208651       0.20072860       0.00000000
Si      -2.23388028       0.48889289       0.70807632       0.00000000
Si       1.40374188       1.19478746       1.59034855       0.00000000
Si       0.20435805       0.57673835      -2.38361782       0.00000000
Si      -1.08175374      -3.33135387      -1.22959998       0.00000000
Si       2.48013621       1.16602421      -2.55839724       0.00000000
Si       2.81039967      -2.53793313      -0.43289828       0.00000000
Si       1.60863750       3.36464153       0.82309711       0.00000000
Si      -0.15216489      -2.99501424       2.41437241       0.00000000
Si      -2.50647714       2.79869435       0.98455869       0.00000000
