10
Lattice="16.28999089631971 0.0 0.0 0.0 16.28999089631971 0.0 0.0 0.0 34.32429715621058" Properties=species:S:1:pos:R:3:initial_magmoms:R:1 pbc="T T T"
Si       1.44080163       0.81505386       1.58207639       0.00000000
Si      -1.99506888       1.19721726       0.15219402       0.00000000
Si       0.76431051       0.92277963      -2.02973412       0.00000000
Si      -0.53105400      -2.33841321      -0.02327189       0.00000000
Si      -3.18544434      -0.36584082      -1.13747352       0.00000000
Si       1.44058986      -3.21491295      -0.98998193       0.00000000
Si       1.35630540       3.19537111      -1.16146622       0.00000000
Si      -2.22514884      -2.54257578      -1.63452394       0.00000000
Si       1.45701018       3.21033546       1.45387507       0.00000000
Si       3.70822302       0.37444194       0.84149494       0.00000000
