10
Lattice="16.28999089631971 0.0 0.0 0.0 16.28999089631971 0.0 0.0 0.0 34.32429715621058" Properties=species:S:1:pos:R:3:initial_magmoms:R:1 pbc="T T T"
Si      -1.25206895       1.79661921      -0.87746682       0.00000000
Si       2.23920711      -0.09508962      -0.80545441       0.00000000
Si      -1.13125905      -1.61286868      -1.36936860       0.00000000
Si       1.91865249       0.10708069       2.79767205       0.00000000
Si      -0.19622934       3.42895866       0.43056422       0.00000000
Si       0.19684836       2.24786850       2.69380667       0.00000000
Si      -0.65836035      -0.77434093      -3.54223512       0.00000000
Si      -0.91251693       1.55580414      -3.24632519       0.00000000
Si       3.62463903      -0.25486894       1.14526514       0.00000000
Si       2.94508539      -2.36479879      -0.82374927       0.00000000
