10
Lattice="16.28999089631971 0.0 0.0 0.0 16.28999089631971 0.0 0.0 0.0 34.32429715621058" Properties=species:S:1:pos:R:3:initial_magmoms:R:1 pbc="T T T"
Si      -1.34656398      -1.33347264      -1.37987184       0.00000000
Si       1.36816452       1.38276525      -1.37788103       0.00000000
Si      -1.44353835       1.32017907       1.36466617       0.00000000
Si       1.39782861      -1.37196239       1.49321073       0.00000000
Si       0.34784037       2.10182214       2.67969938       0.00000000
Si       2.28819114       0.54899418       2.74361125       0.00000000
Si      -2.69045640      -2.70081914      -0.00360405       0.00000000
Si       2.73857706      -2.68881341       0.00123568       0.00000000
Si       0.00663003      -2.69246237      -2.73674639       0.00000000
Si      -2.69490357       2.73933129      -0.03315729       0.00000000
