10
Lattice="16.28999089631971 0.0 0.0 0.0 16.28999089631971 0.0 0.0 0.0 34.32429715621058" Properties=species:S:1:pos:R:3:initial_magmoms:R:1 pbc="T T T"
Si      -1.35571896       1.35461450       1.35574185       0.00000000
Si      -1.35625653      -1.35707889      -1.35762968       0.00000000
Si       1.35835794       1.35753041      -1.35725212       0.00000000
Si       1.36189287      -1.35658978       1.35738941       0.00000000
Si       0.01355328       2.71621415       2.70410397       0.00000000
Si      -2.71251306       2.71505756       0.00133865       0.00000000
Si      -2.71480995      -2.71285908      -0.00006865       0.00000000
Si      -2.71427238       0.00070862      -2.71412667       0.00000000
Si       0.00074934       2.71523675      -2.71419531       0.00000000
Si       0.00127062      -2.71536774      -2.71426396       0.00000000
