10
Lattice="16.28999089631971 0.0 0.0 0.0 16.28999089631971 0.0 0.0 0.0 34.32429715621058" Properties=species:S:1:pos:R:3:initial_magmoms:R:1 pbc="T T T"
Si      -1.35716877       1.35726651       1.35666860       0.00000000
Si      -1.35754344      -1.35702216      -1.35728644       0.00000000
Si       1.35760860      -1.35770634       1.35694320       0.00000000
Si       1.35808101       1.35764118      -1.35773266       0.00000000
Si       0.00000000       2.71451673       2.71392072       0.00000000
Si      -2.71326240      -0.00017919       2.71553396       0.00000000
Si      -0.00187335       2.71285515      -2.71635775       0.00000000
Si      -2.71433754       2.71489140      -0.00010297       0.00000000
Si      -0.00074934      -2.71523675       2.71419531       0.00000000
Si      -2.71502172      -2.71452813       0.00006865       0.00000000
