10
Lattice="16.28999089631971 0.0 0.0 0.0 16.28999089631971 0.0 0.0 0.0 34.32429715621058" Properties=species:S:1:pos:R:3:initial_magmoms:R:1 pbc="T T T"
Si      -1.33342839      -1.35296595      -1.36300144       0.00000000
Si       1.35644875      -1.35503478       1.35649698       0.00000000
Si      -1.35794941       1.36062225       1.35608509       0.00000000
Si       1.36390957       1.36252818      -1.37252987       0.00000000
Si      -0.13717320       2.65173507      -2.69065570       0.00000000
Si      -2.68869123      -0.03515382      -2.70936588       0.00000000
Si       0.00005213      -2.71177349       2.71409234       0.00000000
Si       2.71620763      -2.71120660      -0.00175054       0.00000000
Si      -2.71666116      -2.71216282      -0.00453081       0.00000000
Si      -2.71496700       0.00299736       2.71395504       0.00000000
