10
Lattice="16.28999089631971 0.0 0.0 0.0 16.28999089631971 0.0 0.0 0.0 34.32429715621058" Properties=species:S:1:pos:R:3:initial_magmoms:R:1 pbc="T T T"
Si       1.35718506       1.35710361       1.35783563       0.00000000
Si       1.36028016      -1.35684297      -1.35546725       0.00000000
Si      -1.35808101      -1.35764118       1.35773266       0.00000000
Si      -1.35995436       1.35521397      -1.35862509       0.00000000
Si       2.71490769       2.71241532       0.00054919       0.00000000
Si       2.70368388      -0.01220121      -2.72513791       0.00000000
Si       2.71428867      -2.71476108       0.00034324       0.00000000
Si      -2.71521720       2.71384884       0.00048054       0.00000000
Si      -2.71524978      -0.00037467       2.71440126       0.00000000
Si      -0.00060273       2.71492398       2.71501910       0.00000000
