10
Lattice="16.28999089631971 0.0 0.0 0.0 16.28999089631971 0.0 0.0 0.0 34.32429715621058" Properties=species:S:1:pos:R:3:initial_magmoms:R:1 pbc="T T T"
Si      -1.43925408      -1.36992384       1.25963376       0.00000000
Si       0.70995078       1.71365913       1.47210128       0.00000000
Si       1.40748858      -1.30916214      -1.40451670       0.00000000
Si      -1.32608745       1.40354640      -1.42064913       0.00000000
Si       0.86236002      -0.48573522       2.69476775       0.00000000
Si      -1.13228532       1.66314384       3.12897035       0.00000000
Si       2.66046651       2.76468993       0.02176162       0.00000000
Si       0.04272867      -2.66064570      -2.78555557       0.00000000
Si      -2.66944230       0.05514165      -2.78514368       0.00000000
Si      -2.67211386       2.80072341      -0.01410729       0.00000000
