10
Lattice="16.28999089631971 0.0 0.0 0.0 16.28999089631971 0.0 0.0 0.0 34.32429715621058" Properties=species:S:1:pos:R:3:initial_magmoms:R:1 pbc="T T T"
Si      -2.11898691       0.90113022      -0.31348398       0.00000000
Si       0.45406746      -1.02804561      -2.04744547       0.00000000
Si       1.50270363       1.83578526       0.32549749       0.00000000
Si      -0.68561352      -1.23602004       2.07349763       0.00000000
Si      -0.42445224       3.14084232      -0.62607553       0.00000000
Si      -2.07793611       2.23580250       1.57874693       0.00000000
Si       2.98268271       0.58559292       1.66037015       0.00000000
Si      -1.53635877       0.67895091       3.21165763       0.00000000
Si       1.41675759       0.81464661      -3.31003112       0.00000000
Si       1.18433187      -2.39691060       2.98978525       0.00000000
