10
Lattice="16.28999089631971 0.0 0.0 0.0 16.28999089631971 0.0 0.0 0.0 34.32429715621058" Properties=species:S:1:pos:R:3:initial_magmoms:R:1 pbc="T T T"
Si      -0.04105080      -1.33467228      -1.89223091       0.00000000
Si       0.54157734      -1.55685159       1.63291070       0.00000000
Si      -2.31923988       0.21843261       0.02433594       0.00000000
Si       2.13977295       1.76164947       0.07304215       0.00000000
Si       1.65348387       0.90503982      -2.20482246       0.00000000
Si      -2.03442552       1.40445864      -2.19977679       0.00000000
Si       2.07793611      -2.23580250      -1.57874693       0.00000000
Si      -0.34116147       3.05391888      -1.77061986       0.00000000
Si      -2.55389733       1.02136671       2.28696055       0.00000000
Si      -0.64813023       0.02085120      -3.63995645       0.00000000
