10
Lattice="16.28999089631971 0.0 0.0 0.0 16.28999089631971 0.0 0.0 0.0 34.32429715621058" Properties=species:S:1:pos:R:3:initial_magmoms:R:1 pbc="T T T"
Si       0.02565675      -2.22946569      -0.82570575       0.00000000
Si       2.22402483       0.87500106       0.17117537       0.00000000
Si      -1.39276242       0.74186289      -1.80837661       0.00000000
Si      -1.01318913       0.35015355       2.15821004       0.00000000
Si       1.70271225      -1.83635541      -2.46242645       0.00000000
Si      -2.29452795      -2.61202005      -0.54520744       0.00000000
Si       3.29592312      -0.90894942      -0.99677815       0.00000000
Si      -3.28562784      -0.53170560      -1.31094861       0.00000000
Si       2.47735062       1.07913105       2.50996563       0.00000000
Si       0.78250644      -0.11500740       3.62337781       0.00000000
