10
Lattice="16.28999089631971 0.0 0.0 0.0 16.28999089631971 0.0 0.0 0.0 34.32429715621058" Properties=species:S:1:pos:R:3:initial_magmoms:R:1 pbc="T T T"
Si      -1.81301184       1.19526246      -0.91436546       0.00000000
Si      -0.37058121      -2.25593694      -0.59054986       0.00000000
Si       0.34844310       0.86185503       2.17756895       0.00000000
Si       1.77850962       1.23010677      -0.96997086       0.00000000
Si      -1.25959167       0.31301235      -3.11513765       0.00000000
Si       1.42700400      -3.18718737       0.69716119       0.00000000
Si      -0.56280321      -1.97669376      -2.95528931       0.00000000
Si      -1.68616161       3.31877799       0.13331564       0.00000000
Si      -1.52679654       0.09192447       3.43994866       0.00000000
Si       2.57333130       0.30374334       2.85746501       0.00000000
