10
Lattice="16.28999089631971 0.0 0.0 0.0 16.28999089631971 0.0 0.0 0.0 34.32429715621058" Properties=species:S:1:pos:R:3:initial_magmoms:R:1 pbc="T T T"
Si       1.35653346       1.35726651       1.35721779       0.00000000
Si      -1.35744570       1.35751086      -1.35718347       0.00000000
Si      -1.35747828      -1.35804843       1.35663428       0.00000000
Si       1.35778779      -1.35782037      -1.35718347       0.00000000
Si      -2.71225242       0.00066789       2.71532802       0.00000000
Si      -0.00100998       2.71324611      -2.71505342       0.00000000
Si      -2.71467963       2.71443528       0.00003432       0.00000000
Si      -2.71461447      -0.00107514      -2.71453856       0.00000000
Si       0.00060273      -2.71492398      -2.71501910       0.00000000
Si      -2.71464705      -2.71529865      -0.00061784       0.00000000
