10
Lattice="16.28999089631971 0.0 0.0 0.0 16.28999089631971 0.0 0.0 0.0 34.32429715621058" Properties=species:S:1:pos:R:3:initial_magmoms:R:1 pbc="T T T"
Si      -1.35773435       1.35879777      -1.35570752       0.00000000
Si      -1.35701759      -1.35762489       1.35786995       0.00000000
Si       1.35744116       1.35762489       1.35811022       0.00000000
Si       1.35794941      -1.36062225      -1.35608509       0.00000000
Si      -0.00865894       2.71396287      -2.69349089       0.00000000
Si      -2.71439813       2.71274112       0.00054919       0.00000000
Si      -2.71387685      -0.00053757       2.71477883       0.00000000
Si       0.00104559       2.71441899       2.71464153       0.00000000
Si       0.00001151      -2.71474479       2.71467585       0.00000000
Si       2.71477283       0.00066789       2.71467585       0.00000000
