10
Lattice="16.28999089631971 0.0 0.0 0.0 16.28999089631971 0.0 0.0 0.0 34.32429715621058" Properties=species:S:1:pos:R:3:initial_magmoms:R:1 pbc="T T T"
Si      -1.17191889      -1.42750899       1.46163236       0.00000000
Si       0.18974592      -1.46740320      -1.88883280       0.00000000
Si      -1.30085424       2.06477379      -0.22303941       0.00000000
Si       2.16207396       0.38545398       1.19960053       0.00000000
Si      -0.20538432       2.90093949       1.66651421       0.00000000
Si       2.09238534       2.70703962       1.25372998       0.00000000
Si      -0.03642444      -3.49417242       1.12755379       0.00000000
Si       2.46180996      -1.20386358      -2.61218345       0.00000000
Si      -1.05541281      -0.61628328       3.68114563       0.00000000
Si      -0.28975023      -3.69830241      -1.21123647       0.00000000
