10
Lattice="16.28999089631971 0.0 0.0 0.0 16.28999089631971 0.0 0.0 0.0 34.32429715621058" Properties=species:S:1:pos:R:3:initial_magmoms:R:1 pbc="T T T"
Si      -1.35648459      -1.35799956       1.35718347       0.00000000
Si       1.35839052       1.35690813       1.35708050       0.00000000
Si      -1.35757602       1.35674523      -1.35838482       0.00000000
Si       1.35827649      -1.35589815      -1.36195455       0.00000000
Si      -2.71456560      -0.00006516       2.71416099       0.00000000
Si       2.71604799       2.71269287      -0.00058351       0.00000000
Si       0.00086337       2.71519698       2.71371477       0.00000000
Si      -2.71314837       2.71626053      -0.00099541       0.00000000
Si      -2.71466334      -2.71503801      -0.00003432       0.00000000
Si       0.00066789      -2.71547784       2.71446991       0.00000000
