10
Lattice="16.28999089631971 0.0 0.0 0.0 16.28999089631971 0.0 0.0 0.0 34.32429715621058" Properties=species:S:1:pos:R:3:initial_magmoms:R:1 pbc="T T T"
Si      -1.35639557       1.35679410       1.35653131       0.00000000
Si       1.35733167      -1.35695700       1.35656563       0.00000000
Si      -1.35744116      -1.35762489      -1.35811022       0.00000000
Si       1.35700587       1.35870003      -1.35783563       0.00000000
Si       2.71362078      -0.00071676       2.71374910       0.00000000
Si      -0.00124944      -2.71409319       2.71357748       0.00000000
Si       0.00014498       2.71498914       2.71337153       0.00000000
Si      -2.71436102      -0.00188964       2.71402369       0.00000000
Si      -2.71517552       0.00117288      -2.71381775       0.00000000
Si      -2.71458908       2.71459818      -0.00058351       0.00000000
