10
Lattice="16.28999089631971 0.0 0.0 0.0 16.28999089631971 0.0 0.0 0.0 34.32429715621058" Properties=species:S:1:pos:R:3:initial_magmoms:R:1 pbc="T T T"
Si       1.09546992       0.83616570       1.88955361       0.00000000
Si       0.50575563       1.39142664      -1.90108658       0.00000000
Si      -2.32375221       0.23584662       0.63362688       0.00000000
Si       1.30085424      -2.06477379       0.22303941       0.00000000
Si       3.39323958       0.64226583       1.47676939       0.00000000
Si       2.71653669       0.83875581      -2.47138510       0.00000000
Si      -2.81039967       2.53793313       0.43289828       0.00000000
Si       0.12893535      -3.49228278       1.68467177       0.00000000
Si       0.56136969      -0.36090495       3.88407099       0.00000000
Si       0.87167790       3.09375023       2.40335431       0.00000000
