10
Lattice="16.28999089631971 0.0 0.0 0.0 16.28999089631971 0.0 0.0 0.0 34.32429715621058" Properties=species:S:1:pos:R:3:initial_magmoms:R:1 pbc="T T T"
Si      -0.01620855      -2.39528160       0.12820132       0.00000000
Si      -1.39575978       2.01548744       0.57953176       0.00000000
Si      -0.10070478      -0.01496435      -2.61534128       0.00000000
Si       1.64594160      -0.11554497       2.09920654       0.00000000
Si      -2.77252542       0.09681165       0.66733336       0.00000000
Si       2.25121284      -2.83589352      -0.61238013       0.00000000
Si       3.44437389      -1.06334604       0.72657713       0.00000000
Si      -1.45701018      -3.21033546      -1.45387507       0.00000000
Si       0.33459660      -1.39779603       3.66494253       0.00000000
Si       2.12046930       0.10310725      -3.43411353       0.00000000
