10
Lattice="16.28999089631971 0.0 0.0 0.0 16.28999089631971 0.0 0.0 0.0 34.32429715621058" Properties=species:S:1:pos:R:3:initial_magmoms:R:1 pbc="T T T"
Si       1.35526284      -1.31781213       1.34636444       0.00000000
Si       0.94894137       1.61850924      -1.37586074       0.00000000
Si      -0.81189360      -1.87950762      -1.13869855       0.00000000
Si      -1.39488012       1.38390066       1.34031307       0.00000000
Si      -0.87407253       3.33066969      -1.26134311       0.00000000
Si       2.55151803       2.68688889       0.01871018       0.00000000
Si      -0.01826109      -1.56255309      -3.39581243       0.00000000
Si       2.73753517      -2.57078843      -0.14967805       0.00000000
Si      -0.02796993      -2.67700900       2.70483507       0.00000000
Si       2.68869123       0.03515382       2.70936588       0.00000000
