10
Lattice="16.28999089631971 0.0 0.0 0.0 16.28999089631971 0.0 0.0 0.0 34.32429715621058" Properties=species:S:1:pos:R:3:initial_magmoms:R:1 pbc="T T T"
Si      -0.45406746       1.02804561       2.04744547       0.00000000
Si      -1.79137872      -0.78164307      -1.31503321       0.00000000
Si       0.96269013       1.84269222      -1.26258565       0.00000000
Si       1.94035077      -1.55282796       0.06391188       0.00000000
Si      -0.34784037      -2.10182214      -2.67969938       0.00000000
Si      -2.57305437       1.92917583       1.73396149       0.00000000
Si       2.36478672       0.63967572      -2.71522504       0.00000000
Si       1.04998824      -3.47378453      -1.18648864       0.00000000
Si       1.04863617       2.86383087       2.37294296       0.00000000
Si       2.71811682       2.74499532       0.10808727       0.00000000
