10
Lattice="16.28999089631971 0.0 0.0 0.0 16.28999089631971 0.0 0.0 0.0 34.32429715621058" Properties=species:S:1:pos:R:3:initial_magmoms:R:1 pbc="T T T"
Si      -1.84386510      -1.35464382      -0.51668393       0.00000000
Si      -0.83688246       2.19840066       0.23330238       0.00000000
Si       1.61249823      -0.13362687      -1.72342392       0.00000000
Si       1.58306220      -0.64591479       1.68182285       0.00000000
Si       2.17524412      -2.78798463       0.99763625       0.00000000
Si       2.51114327       2.04543756      -1.76852608       0.00000000
Si       2.91543012      -2.03331780      -1.15130622       0.00000000
Si       1.07994555       3.60176787       0.11793835       0.00000000
Si      -1.57620411       2.34504324       2.48418807       0.00000000
Si      -2.27077713      -1.22546412      -2.81679070       0.00000000
