10
Lattice="16.28999089631971 0.0 0.0 0.0 16.28999089631971 0.0 0.0 0.0 34.32429715621058" Properties=species:S:1:pos:R:3:initial_magmoms:R:1 pbc="T T T"
Si      -2.08257876       0.42368661      -1.00769328       0.00000000
Si       0.83688246      -2.19840066      -0.23330238       0.00000000
Si      -0.73932165       0.14664258       2.25088569       0.00000000
Si       1.91682801       1.40336721      -0.11536403       0.00000000
Si       0.57927240       3.08964285       1.06717732       0.00000000
Si       3.01922478       0.62687178       1.81438336       0.00000000
Si       1.35268902      -0.03761361       3.32170139       0.00000000
Si      -1.14660423       2.48497434       2.48559537       0.00000000
Si      -1.00698264      -3.55304448      -0.74998631       0.00000000
Si      -3.77742294      -0.77045184       0.10571889       0.00000000
