10
Lattice="16.28999089631971 0.0 0.0 0.0 16.28999089631971 0.0 0.0 0.0 34.32429715621058" Properties=species:S:1:pos:R:3:initial_magmoms:R:1 pbc="T T T"
Si      -0.40259106       1.59163074       1.69895069       0.00000000
Si      -1.15203369      -0.19106541      -2.05678168       0.00000000
Si       0.45926397      -2.07485730       1.07328705       0.00000000
Si       1.95190038       0.81037863      -1.10160461       0.00000000
Si      -1.76130249      -2.91796254       0.69791632       0.00000000
Si       1.87745508       1.66231305       2.42470403       0.00000000
Si       3.31765398       0.76413132       0.81781116       0.00000000
Si      -0.76886194       2.14467624      -2.90321932       0.00000000
Si      -3.22712135      -1.09287981       1.50597938       0.00000000
Si       2.44107279      -0.80993880      -2.77100206       0.00000000
