10
Lattice="16.28999089631971 0.0 0.0 0.0 16.28999089631971 0.0 0.0 0.0 34.32429715621058" Properties=species:S:1:pos:R:3:initial_magmoms:R:1 pbc="T T T"
Si      -1.38140829       1.29967266       1.34915501       0.00000000
Si      -1.29073815      -1.27612602      -1.46972058       0.00000000
Si       1.36548368      -1.41397200       1.32760277       0.00000000
Si       0.89451648       1.77941927      -1.30156641       0.00000000
Si       0.60367482      -0.92659149      -2.91209701       0.00000000
Si      -0.78522687       3.44612411      -1.14444788       0.00000000
Si      -2.25083817       0.23358231      -3.01191212       0.00000000
Si      -0.00130320       2.64862272       2.69908575       0.00000000
Si      -2.79691155       2.59044299      -0.11911567       0.00000000
Si       2.71575218      -0.06299343       2.70303305       0.00000000
