10
Lattice="16.28999089631971 0.0 0.0 0.0 16.28999089631971 0.0 0.0 0.0 34.32429715621058" Properties=species:S:1:pos:R:3:initial_magmoms:R:1 pbc="T T T"
Si      -1.73483613       1.24352973       0.87087655       0.00000000
Si       0.12315240       1.40509395      -1.84664822       0.00000000
Si       2.21009688      -0.07747524       0.95503978       0.00000000
Si      -0.90661995      -2.09815200      -0.79079792       0.00000000
Si       2.65281021      -1.99713771      -0.29409074       0.00000000
Si       0.74502315      -3.27666834       0.43423693       0.00000000
Si      -2.15689374       1.33441164      -2.57240156       0.00000000
Si      -0.57138804       2.88544770       2.09869167       0.00000000
Si       1.56335130       0.50691222      -3.45354109       0.00000000
Si      -2.63895719       0.35538264       2.76063611       0.00000000
