10
Lattice="16.28999089631971 0.0 0.0 0.0 16.28999089631971 0.0 0.0 0.0 34.32429715621058" Properties=species:S:1:pos:R:3:initial_magmoms:R:1 pbc="T T T"
Si       0.34209000       0.12618234       2.29265839       0.00000000
Si      -0.98632692      -1.66864986      -1.37547833       0.00000000
Si       1.79297514       0.97150302      -1.36782401       0.00000000
Si      -1.65003039       1.93051161       0.11574159       0.00000000
Si      -2.25015399      -0.30069711      -2.81864421       0.00000000
Si      -1.90133622       0.17097984       3.13394738       0.00000000
Si       0.48482298       2.41139241      -2.80230583       0.00000000
Si      -3.47069853       1.10558601      -1.34613104       0.00000000
Si       2.13619308      -1.03441500       3.13713954       0.00000000
Si      -2.93684265      -2.71968066       0.07486133       0.00000000
