10
Lattice="16.28999089631971 0.0 0.0 0.0 16.28999089631971 0.0 0.0 0.0 34.32429715621058" Properties=species:S:1:pos:R:3:initial_magmoms:R:1 pbc="T T T"
Si       1.00616814      -0.26648811       2.08472168       0.00000000
Si      -0.16084746       2.30011542      -0.58059581       0.00000000
Si       2.24342622      -0.04479750      -0.84128899       0.00000000
Si      -2.28446073      -0.43562718       0.77717117       0.00000000
Si       0.25130583       1.75953177      -3.01820578       0.00000000
Si       0.23174154       1.76124222       3.15172737       0.00000000
Si       3.23115408       0.39021066       1.60346044       0.00000000
Si       1.90133622      -0.17097984      -3.13394738       0.00000000
Si       0.96863598       3.29768244       1.51153992       0.00000000
Si      -2.95652097       1.63973511       1.69170826       0.00000000
