10
Lattice="16.28999089631971 0.0 0.0 0.0 16.28999089631971 0.0 0.0 0.0 34.32429715621058" Properties=species:S:1:pos:R:3:initial_magmoms:R:1 pbc="T T T"
Si       1.45702647      -1.83151728      -0.31760290       0.00000000
Si      -1.71765995      -0.13027113      -1.63222421       0.00000000
Si      -1.61088063      -0.49449924       1.73880122       0.00000000
Si       1.72476891       1.78434144      -0.38257883       0.00000000
Si       0.34990920       2.39979393      -2.29416866       0.00000000
Si      -1.13710716       3.14910135      -0.51266799       0.00000000
Si       1.63953963       1.90449648       2.30995784       0.00000000
Si      -0.54367875       2.93040810       1.84599606       0.00000000
Si       1.82443113      -2.31982632       1.93414090       0.00000000
Si      -2.94056035       1.83528027      -1.20341053       0.00000000
