10
Lattice="16.28999089631971 0.0 0.0 0.0 16.28999089631971 0.0 0.0 0.0 34.32429715621058" Properties=species:S:1:pos:R:3:initial_magmoms:R:1 pbc="T T T"
Si      -1.28511810       1.33646418       1.49098309       0.00000000
Si       1.10485296       1.68485841      -1.28454090       0.00000000
Si       1.40696730      -1.36985868       1.46737139       0.00000000
Si      -2.08010268      -0.80413956      -1.09385555       0.00000000
Si       2.27100519       0.28417905      -2.92170781       0.00000000
Si      -0.78705135       3.34977786      -1.42458411       0.00000000
Si      -2.58728043       2.69786835       0.09719960       0.00000000
Si       2.80938969      -2.63285496       0.03421448       0.00000000
Si      -2.64676336      -0.01676241       2.84966653       0.00000000
Si       2.82585888       2.71692765       0.02170670       0.00000000
