10
Lattice="16.28999089631971 0.0 0.0 0.0 16.28999089631971 0.0 0.0 0.0 34.32429715621058" Properties=species:S:1:pos:R:3:initial_magmoms:R:1 pbc="T T T"
Si       1.36585297       1.35078146      -1.37249211       0.00000000
Si      -1.34881756      -1.36647284      -1.37486049       0.00000000
Si       1.41635197      -1.39153320       1.32090267       0.00000000
Si      -1.42712359       1.38679865       1.37177130       0.00000000
Si      -2.68948456      -2.71900530       0.00425622       0.00000000
Si      -2.71543453       2.71130597      -0.03250513       0.00000000
Si       2.72054566       2.71189241       0.01983945       0.00000000
Si      -2.70606778      -0.00664306      -2.73355423       0.00000000
Si       0.00780943       2.70900908      -2.73448099       0.00000000
Si       0.00956060      -2.72324070      -2.73461828       0.00000000
