10
Lattice="16.28999089631971 0.0 0.0 0.0 16.28999089631971 0.0 0.0 0.0 34.32429715621058" Properties=species:S:1:pos:R:3:initial_magmoms:R:1 pbc="T T T"
Si      -1.45572490      -1.43024571       1.23056107       0.00000000
Si      -0.59342841       0.21869325      -2.35866405       0.00000000
Si       2.18321838      -1.02591162       0.46396178       0.00000000
Si      -0.44878950       2.24362170       1.12099785       0.00000000
Si       2.26844766      -1.14606666      -2.22857489       0.00000000
Si       0.54367875      -2.93040810      -1.84599606       0.00000000
Si      -0.62519391      -0.64029474       3.43210216       0.00000000
Si      -0.14908608       3.45567915      -0.90355330       0.00000000
Si      -1.06720188      -3.42490734      -0.10719484       0.00000000
Si      -1.39934195       2.40020118      -2.58640588       0.00000000
