10
Lattice="16.28999089631971 0.0 0.0 0.0 16.28999089631971 0.0 0.0 0.0 34.32429715621058" Properties=species:S:1:pos:R:3:initial_magmoms:R:1 pbc="T T T"
Si       1.35721601      -1.35778779       1.35721779       0.00000000
Si      -1.35813808       1.35733167       1.35738941       0.00000000
Si       1.35724859       1.35736425      -1.35855644       0.00000000
Si      -1.35667202      -1.35900954      -1.35783563       0.00000000
Si      -0.00052617       2.71373481       2.71405802       0.00000000
Si       0.00073468      -2.71350675      -2.71429829       0.00000000
Si       2.71425446      -2.71441899       0.00013730       0.00000000
Si       2.71335851      -0.00154755      -2.71549964       0.00000000
Si      -0.00088292      -2.71492398       2.71398937       0.00000000
Si       2.71451510       2.71494027       0.00024027       0.00000000
