10
Lattice="16.28999089631971 0.0 0.0 0.0 16.28999089631971 0.0 0.0 0.0 34.32429715621058" Properties=species:S:1:pos:R:3:initial_magmoms:R:1 pbc="T T T"
Si      -0.50490433       2.26179224      -0.24658589       0.00000000
Si       2.26345803      -0.41213700      -0.41377963       0.00000000
Si      -0.68051053      -0.55864926       2.19696219       0.00000000
Si       1.74555006      -1.62025227      -2.42305646       0.00000000
Si      -2.00042407       2.18511521      -2.25486731       0.00000000
Si      -1.69277113      -3.33790245       0.09772133       0.00000000
Si      -1.10897011       3.07681352       1.89665875       0.00000000
Si      -2.96756137       0.00457749       2.45055024       0.00000000
Si      -0.70504327      -2.90289429       2.54247076       0.00000000
Si       0.52984528       0.45918352       3.96916097       0.00000000
