10
Lattice="10.86 0.0 0.0 0.0 10.86 0.0 0.0 0.0 10.86" Properties=species:S:1:pos:R:3:initial_magmoms:R:1 pbc="T T T"
Si      -1.34465262       0.79295376      -1.34283900       0.00000000
Si       1.32636438       1.19443710       1.38715866       0.00000000
Si       1.32636438      -1.52056290      -1.32784134       0.00000000
Si      -1.38863562      -1.52056290       1.38715866       0.00000000
Si      -0.01902672       2.39471688      -2.60377188       0.00000000
Si       2.68386438       2.55193710       0.02965866       0.00000000
Si      -0.08014680       2.38651758       2.83124544       0.00000000
Si       2.68386438      -0.16306290      -2.68534134       0.00000000
Si       2.68386438      -0.16306290       2.74465866       0.00000000
Si       2.68386438      -2.87806290       0.02965866       0.00000000
