10
Lattice="16.28999089631971 0.0 0.0 0.0 16.28999089631971 0.0 0.0 0.0 34.3005442915855" Properties=species:S:1:pos:R:3:initial_magmoms:R:1 pbc="T T T"
Si      -0.49390791      -0.42632559      -2.26455750       0.00000000
Si      -1.59867032       0.26902935       1.73502540       0.00000000
Si       0.73176798      -2.25458487       0.23187181       0.00000000
Si       1.89062229       1.51537725      -0.22007242       0.00000000
Si      -0.20942424       1.88516025       2.77055941       0.00000000
Si       1.71905601      -0.80493777      -2.89709419       0.00000000
Si       2.48848158      -2.36537316      -1.29512068       0.00000000
Si      -1.09415076      -3.57521517      -0.52565614       0.00000000
Si       3.32104719       0.90341082       1.55607936       0.00000000
Si      -1.45588847       1.46385198      -3.25512347       0.00000000
