10
Lattice="16.28999089631971 0.0 0.0 0.0 16.28999089631971 0.0 0.0 0.0 34.3005442915855" Properties=species:S:1:pos:R:3:initial_magmoms:R:1 pbc="T T T"
Si       1.35594702       1.35701357       1.35768490       0.00000000
Si      -1.35842310      -1.35810656       1.35734190       0.00000000
Si       1.35495333      -1.35918170      -1.35998304       0.00000000
Si      -1.35681039       1.35565987      -1.36176667       0.00000000
Si       2.71433754       2.71444949      -0.00154353       0.00000000
Si       2.71412577      -0.00088402       2.71502680       0.00000000
Si      -2.71498914      -2.71424906      -0.00116622       0.00000000
Si      -0.00138465       2.71441691       2.71492390       0.00000000
Si       2.71399545      -2.71639934       0.00017150       0.00000000
Si      -0.00135207      -2.71571516       2.71499250       0.00000000
