10
Lattice="16.28999089631971 0.0 0.0 0.0 16.28999089631971 0.0 0.0 0.0 34.3005442915855" Properties=species:S:1:pos:R:3:initial_magmoms:R:1 pbc="T T T"
Si       1.81056834       1.37037996       0.69187667       0.00000000
Si       0.36888705      -2.14625800      -0.96388013       0.00000000
Si      -1.30987890      -0.46900539       1.94052008       0.00000000
Si      -0.97283880       1.40822163      -1.76774814       0.00000000
Si      -3.39082051      -0.54876123       0.80678355       0.00000000
Si       0.80366715       3.49221762       0.42206843       0.00000000
Si       3.35020140       1.12811508      -1.06805095       0.00000000
Si      -1.76458167      -2.74608023      -1.79470838       0.00000000
Si      -1.32600600       1.50588018       3.20590216       0.00000000
Si       0.27148914       3.36588867      -1.89520903       0.00000000
