10
Lattice="16.28999089631971 0.0 0.0 0.0 16.28999089631971 0.0 0.0 0.0 34.3005442915855" Properties=species:S:1:pos:R:3:initial_magmoms:R:1 pbc="T T T"
Si      -1.35531171      -1.35672894      -1.35720470       0.00000000
Si      -1.35755973       1.35726651       1.35747910       0.00000000
Si       1.35769005      -1.35809730       1.35741050       0.00000000
Si       1.35834165       1.35977517      -1.35686169       0.00000000
Si      -0.00193851       2.71311579      -2.71245426       0.00000000
Si      -2.71428867      -0.00066789       2.71386058       0.00000000
Si      -2.71459818       2.71404432      -0.00054881       0.00000000
Si       2.71432125      -0.00197109       2.71488960       0.00000000
Si       2.71469592       2.71464705       0.00017150       0.00000000
Si      -0.00061902      -2.71223613      -2.71729064       0.00000000
