10
Lattice="16.28999089631971 0.0 0.0 0.0 16.28999089631971 0.0 0.0 0.0 34.3005442915855" Properties=species:S:1:pos:R:3:initial_magmoms:R:1 pbc="T T T"
Si      -1.35026181      -1.33993395      -1.37342886       0.00000000
Si       1.36288656       1.37497374      -1.37034181       0.00000000
Si      -1.44462978       1.31523831       1.37970586       0.00000000
Si       1.48654395      -1.27441557       1.46706940       0.00000000
Si       0.32663079       1.98364959       2.86347964       0.00000000
Si       2.36666007       0.50495742       2.92083018       0.00000000
Si      -2.70361872      -2.69461035       0.01725318       0.00000000
Si      -2.69252523       2.73548196      -0.02373599       0.00000000
Si       0.00474039      -2.69868285      -2.73193698       0.00000000
Si      -2.70826137       0.01612710      -2.73241719       0.00000000
