10
Lattice="16.28999089631971 0.0 0.0 0.0 16.28999089631971 0.0 0.0 0.0 34.3005442915855" Properties=species:S:1:pos:R:3:initial_magmoms:R:1 pbc="T T T"
Si      -1.24789545       1.42024365      -1.40344185       0.00000000
Si       1.44462978      -1.31523831      -1.37970586       0.00000000
Si       1.77126057       0.66841128       1.48377377       0.00000000
Si      -1.93360671      -0.69607170       1.25231357       0.00000000
Si      -0.97471215      -1.20218571       3.30897536       0.00000000
Si      -2.53729782       2.76529266      -0.00583110       0.00000000
Si       0.50212296       0.73155132       3.66127644       0.00000000
Si       2.69412165       2.66999616       0.11195704       0.00000000
Si      -2.61816138       0.05742225      -2.74994477       0.00000000
Si       0.09436797      -2.65517226      -2.75313473       0.00000000
