10
Lattice="16.28999089631971 0.0 0.0 0.0 16.28999089631971 0.0 0.0 0.0 34.3005442915855" Properties=species:S:1:pos:R:3:initial_magmoms:R:1 pbc="T T T"
Si       1.60798590       1.75640409       0.18872170       0.00000000
Si      -0.40052223      -0.49837626       2.31093186       0.00000000
Si      -1.87351290       1.37960010      -0.59840763       0.00000000
Si       1.34677575      -1.79646120      -1.14666784       0.00000000
Si      -0.98751609       1.71846468       2.77354356       0.00000000
Si       0.98686449       2.90155851       2.16625209       0.00000000
Si      -0.08200386       1.58395815      -3.40549714       0.00000000
Si      -3.48001804      -0.21662442      -1.47636485       0.00000000
Si      -2.77283493       2.35915038       1.38673748       0.00000000
Si       1.71778050      -0.96238062       3.46847298       0.00000000
