10
Lattice="16.28999089631971 0.0 0.0 0.0 16.28999089631971 0.0 0.0 0.0 34.3005442915855" Properties=species:S:1:pos:R:3:initial_magmoms:R:1 pbc="T T T"
Si       1.45148787      -1.21743315       1.35384324       0.00000000
Si       1.21790556      -0.17358624      -2.01004732       0.00000000
Si      -0.96894549       1.84526604       1.18151721       0.00000000
Si      -0.51530157       3.01516497      -0.90824462       0.00000000
Si      -2.32125984       1.83115890      -1.96624550       0.00000000
Si       1.94285943      -2.42624889      -1.82461847       0.00000000
Si      -2.49836472       0.43310223       2.59150502       0.00000000
Si      -3.49956441      -0.46895652      -0.88581205       0.00000000
Si      -0.14331942      -2.41090371       2.78339266       0.00000000
Si       2.61283455       0.27956898       2.73923412       0.00000000
