10
Lattice="16.28999089631971 0.0 0.0 0.0 16.28999089631971 0.0 0.0 0.0 34.3005442915855" Properties=species:S:1:pos:R:3:initial_magmoms:R:1 pbc="T T T"
Si      -0.97472844       0.39817647       2.11600176       0.00000000
Si       2.21812785      -0.34352352      -0.83964349       0.00000000
Si      -1.49594328      -1.95421356      -0.27015124       0.00000000
Si      -0.75974931       1.75744569      -1.60663839       0.00000000
Si      -0.17233191       2.94292601       1.48456269       0.00000000
Si       2.25026802      -2.62386288      -0.35607415       0.00000000
Si      -3.28161724      -0.72731592      -1.32221812       0.00000000
Si      -2.06995401       0.38525850      -3.02517249       0.00000000
Si      -2.54200563       2.71266686      -0.36289996       0.00000000
Si       0.95351886      -2.06860194      -2.96864517       0.00000000
