10
Lattice="16.28999089631971 0.0 0.0 0.0 16.28999089631971 0.0 0.0 0.0 34.3005442915855" Properties=species:S:1:pos:R:3:initial_magmoms:R:1 pbc="T T T"
Si       1.39136148      -1.31699763      -1.35377464       0.00000000
Si      -1.32921513       1.42504498      -1.32760331       0.00000000
Si       1.86386922       0.81489326       1.31758754       0.00000000
Si      -1.24036947      -0.79864983       2.15260046       0.00000000
Si       0.41076864       0.62753871       3.22418436       0.00000000
Si      -2.50497846      -2.52372825       0.02359879       0.00000000
Si       2.72021823      -2.64259638       0.03505518       0.00000000
Si       0.04509072      -2.66471820      -2.70878410       0.00000000
Si      -2.67737553       0.05620050      -2.70511394       0.00000000
Si       2.75203260       0.05557176      -2.70164958       0.00000000
