10
Lattice="16.28999089631971 0.0 0.0 0.0 16.28999089631971 0.0 0.0 0.0 34.3005442915855" Properties=species:S:1:pos:R:3:initial_magmoms:R:1 pbc="T T T"
Si       2.15778969      -0.67131090       0.63322270       0.00000000
Si      -0.62112141       1.14515442       1.97753039       0.00000000
Si      -1.60798590      -1.75640409      -0.18872170       0.00000000
Si       0.79620633       0.78612282      -2.40820826       0.00000000
Si      -3.48149880      -0.37680399      -0.78712933       0.00000000
Si      -2.59550199      -0.03793941       2.58482186       0.00000000
Si       1.89061740      -1.20733335       2.92563226       0.00000000
Si      -2.00850813      -2.25478035       2.12221016       0.00000000
Si       3.50733474       1.25019234       0.32009286       0.00000000
Si      -0.26121015      -3.55286529      -1.33538954       0.00000000
