10
Lattice="16.28999089631971 0.0 0.0 0.0 16.28999089631971 0.0 0.0 0.0 34.3005442915855" Properties=species:S:1:pos:R:3:initial_magmoms:R:1 pbc="T T T"
Si      -1.79744349       0.05727564       1.50795567       0.00000000
Si      -0.00773775      -2.32958144      -0.32026436       0.00000000
Si      -0.64733202       1.31019818      -1.85867893       0.00000000
Si       2.13346872       0.59982223       0.83082825       0.00000000
Si      -2.71578735       1.99045229      -1.07196121       0.00000000
Si       1.42268715      -2.94154787       1.45588742       0.00000000
Si      -3.65908328       0.08369476       0.06105500       0.00000000
Si       1.76458167       2.74608023       1.79470838       0.00000000
Si       0.94464081      -2.66618171      -2.44590458       0.00000000
Si      -1.62623884       2.19731900       2.60149194       0.00000000
