10
Lattice="16.28999089631971 0.0 0.0 0.0 16.28999089631971 0.0 0.0 0.0 34.3005442915855" Properties=species:S:1:pos:R:3:initial_magmoms:R:1 pbc="T T T"
Si      -1.23906627       1.41073607      -1.40888535       0.00000000
Si       1.34177472       1.35822037       1.37196080       0.00000000
Si      -1.37590227      -1.35299993       1.37158349       0.00000000
Si       1.60774155      -1.21689698      -1.46833852       0.00000000
Si       0.54551952       2.35883036      -2.84712654       0.00000000
Si      -2.47938687      -0.11699618      -2.80277591       0.00000000
Si       2.70679527      -2.71217237       0.00418467       0.00000000
Si       2.70879894       2.71378946       0.00646909       0.00000000
Si       2.69915526       0.00557682       2.73245835       0.00000000
Si      -2.73616614      -2.69598011      -0.02111200       0.00000000
