10
Lattice="16.28999089631971 0.0 0.0 0.0 16.28999089631971 0.0 0.0 0.0 34.3005442915855" Properties=species:S:1:pos:R:3:initial_magmoms:R:1 pbc="T T T"
Si      -1.30898295       1.35114147      -1.40058119       0.00000000
Si       1.35071793       1.35985662       1.36477140       0.00000000
Si      -1.36702422      -1.35556909       1.36549171       0.00000000
Si       1.50832368      -1.24212553      -1.43446328       0.00000000
Si      -2.16327942      -0.35495910      -2.85359563       0.00000000
Si       2.69454519      -2.69256942       0.01772310       0.00000000
Si       0.18231768       2.62249452      -2.78502880       0.00000000
Si      -2.70879894      -2.71378946      -0.00646909       0.00000000
Si       2.70417258       0.00666261       2.72650377       0.00000000
Si      -0.00964368      -2.70821264       2.72598926       0.00000000
