10
Lattice="16.28999089631971 0.0 0.0 0.0 16.28999089631971 0.0 0.0 0.0 34.3005442915855" Properties=species:S:1:pos:R:3:initial_magmoms:R:1 pbc="T T T"
Si       1.35698958      -1.35707593      -1.35765060       0.00000000
Si      -1.35817875       1.35789759      -1.35734190       0.00000000
Si       1.35853713       1.35897273       1.35723900       0.00000000
Si      -1.35829278      -1.35916105       1.35891972       0.00000000
Si      -2.71412577       0.00088402      -2.71502680       0.00000000
Si       2.71456560      -2.71474969      -0.00068601       0.00000000
Si       2.71588509       0.00027907      -2.71413499       0.00000000
Si      -2.71547784      -2.71483114      -0.00003430       0.00000000
Si       0.00433314      -2.71825204       2.71211125       0.00000000
Si      -0.00013032      -2.71551532      -2.71485530       0.00000000
