10
Lattice="16.28999089631971 0.0 0.0 0.0 16.28999089631971 0.0 0.0 0.0 34.3005442915855" Properties=species:S:1:pos:R:3:initial_magmoms:R:1 pbc="T T T"
Si       0.60290919      -0.89166477       2.06557993       0.00000000
Si       1.45310058       0.18735455      -1.90659682       0.00000000
Si       1.12972779       2.11526464      -0.31714301       0.00000000
Si      -1.65113811      -1.42618854      -1.07158390       0.00000000
Si      -0.41076864      -0.62753871      -3.22418436       0.00000000
Si      -1.22645781       0.09997987       3.18292079       0.00000000
Si       2.62687653      -0.08495398       2.95862940       0.00000000
Si      -1.24582662       3.49069451      -1.40292735       0.00000000
Si      -1.70193033       2.32812608       2.79985209       0.00000000
Si      -3.86926596      -1.08266502      -0.23194041       0.00000000
