10
Lattice="16.28999089631971 0.0 0.0 0.0 16.28999089631971 0.0 0.0 0.0 34.3005442915855" Properties=species:S:1:pos:R:3:initial_magmoms:R:1 pbc="T T T"
Si      -1.86997797       0.87843825       1.05769217       0.00000000
Si       1.23865902       1.38684915      -1.47286619       0.00000000
Si       1.09467171      -1.18861614       1.76479829       0.00000000
Si      -0.28751850      -1.24185186      -2.19647088       0.00000000
Si      -3.11917662      -1.02899043       0.92052422       0.00000000
Si       2.74538628       2.53151487      -0.02006583       0.00000000
Si       1.20963024      -3.44207048       1.07930153       0.00000000
Si      -0.54610596       3.75645771      -0.58911218       0.00000000
Si       3.00193749       0.05245380       2.42950891       0.00000000
Si      -2.70218520       2.96241795       0.21736267       0.00000000
