10
Lattice="16.28999089631971 0.0 0.0 0.0 16.28999089631971 0.0 0.0 0.0 34.3005442915855" Properties=species:S:1:pos:R:3:initial_magmoms:R:1 pbc="T T T"
Si      -1.89143190      -1.11668276      -0.60982972       0.00000000
Si       0.98574048       0.95516415      -1.89959951       0.00000000
Si      -1.08243792       1.51291746       1.49804281       0.00000000
Si       1.75738149      -1.53023699       0.56774293       0.00000000
Si       2.37495168       1.86188184      -0.12132109       0.00000000
Si       2.15870193       1.31132871       2.22037837       0.00000000
Si      -2.56272651      -2.06362666       1.39946299       0.00000000
Si      -1.12536207      -2.64374387      -2.20518322       0.00000000
Si      -2.48497434      -0.00003258       2.73636175       0.00000000
Si       2.26263213      -1.04245574       2.82701814       0.00000000
