10
Lattice="16.28999089631971 0.0 0.0 0.0 16.28999089631971 0.0 0.0 0.0 34.3005442915855" Properties=species:S:1:pos:R:3:initial_magmoms:R:1 pbc="T T T"
Si       1.40168934      -1.88646249      -0.20844452       0.00000000
Si      -0.17384688       1.29920080       2.07412077       0.00000000
Si      -2.19499116      -1.21331082      -0.64467909       0.00000000
Si       1.00341513       1.88208958      -1.56832466       0.00000000
Si      -1.07752648       1.80233375      -2.70206119       0.00000000
Si      -1.03178905       3.21718541       0.85552465       0.00000000
Si       3.47188770       0.91656500       0.84513158       0.00000000
Si      -2.27427296      -2.70726672       1.20940357       0.00000000
Si       3.51393219      -1.19267139      -0.79793401       0.00000000
Si       0.51101730      -3.20792358      -2.01790215       0.00000000
