10
Lattice="16.28999089631971 0.0 0.0 0.0 16.28999089631971 0.0 0.0 0.0 34.3005442915855" Properties=species:S:1:pos:R:3:initial_magmoms:R:1 pbc="T T T"
Si      -1.35391077      -1.34793234       1.37173441       0.00000000
Si       1.36109466       1.36283769       1.36974498       0.00000000
Si      -1.34144892       1.41652953      -1.33836340       0.00000000
Si       1.42112331      -1.36454814      -1.39430418       0.00000000
Si       0.25335837       2.61000009      -2.76791282       0.00000000
Si      -2.70990666      -2.70870120      -0.01358302       0.00000000
Si       0.00478926      -2.70884781       2.72983092       0.00000000
Si      -2.70860346       0.00757485       2.73182036       0.00000000
Si       2.73010626      -2.71568961       0.00627700       0.00000000
Si      -2.70361872       2.74714560       0.02186661       0.00000000
