10
Lattice="16.28999089631971 0.0 0.0 0.0 16.28999089631971 0.0 0.0 0.0 34.3005442915855" Properties=species:S:1:pos:R:3:initial_magmoms:R:1 pbc="T T T"
Si       1.35974259      -1.35534429       1.36121786       0.00000000
Si      -1.35604476       1.36124127       1.36241838       0.00000000
Si       1.36562328       1.36234899      -1.36372523       0.00000000
Si      -1.36109466      -1.36283769      -1.36974498       0.00000000
Si      -2.70254358       0.05369184      -2.70810838       0.00000000
Si      -2.71500543      -2.71077003       0.00198943       0.00000000
Si      -2.71632492       2.71458189       0.00682581       0.00000000
Si       2.71630863       2.71546155       0.00209233       0.00000000
Si       0.00052128      -2.71391400       2.71914287       0.00000000
Si      -2.71438641       0.00146610       2.71928007       0.00000000
