10
Lattice="16.28999089631971 0.0 0.0 0.0 16.28999089631971 0.0 0.0 0.0 34.3005442915855" Properties=species:S:1:pos:R:3:initial_magmoms:R:1 pbc="T T T"
Si      -1.35721764       1.35728280       1.35754770       0.00000000
Si       1.35778779      -1.35754344       1.35737620       0.00000000
Si      -1.35682668      -1.35777150      -1.35905693       0.00000000
Si       1.35922131       1.35856971      -1.35792501       0.00000000
Si      -0.00058644       2.71340901       2.71502680       0.00000000
Si       0.00149868      -2.71413229       2.71475240       0.00000000
Si       2.71526607       2.71467963      -0.00013720       0.00000000
Si      -2.71490769       2.71538010       0.00013720       0.00000000
Si       2.71609686      -0.00016290       2.71423789       0.00000000
Si      -2.71521720      -2.71520743       0.00017150       0.00000000
