10
Lattice="16.28999089631971 0.0 0.0 0.0 16.28999089631971 0.0 0.0 0.0 34.3005442915855" Properties=species:S:1:pos:R:3:initial_magmoms:R:1 pbc="T T T"
Si       1.70100180       0.89393004      -1.48469989       0.00000000
Si      -0.88011612      -1.77937299      -1.45376078       0.00000000
Si      -2.04002928       1.47869217      -0.05735054       0.00000000
Si       0.23838786       0.41093154       2.92556366       0.00000000
Si       2.02315284      -1.95867702       2.04180964       0.00000000
Si       0.35080515       2.23730118      -2.91753733       0.00000000
Si      -1.87857909      -3.21194817       0.23242062       0.00000000
Si      -0.08498493       2.73763224       2.55731281       0.00000000
Si      -2.36666007      -0.50495742      -2.92083018       0.00000000
Si      -1.11716820       3.48027705      -1.42916728       0.00000000
