10
Lattice="16.28999089631971 0.0 0.0 0.0 16.28999089631971 0.0 0.0 0.0 34.3005442915855" Properties=species:S:1:pos:R:3:initial_magmoms:R:1 pbc="T T T"
Si       0.06802704      -1.93637601      -1.26894935       0.00000000
Si      -1.31777955      -0.54385794       1.99131921       0.00000000
Si       2.27309031      -0.33262551       0.97413600       0.00000000
Si      -1.40038614       1.58100966      -1.63263822       0.00000000
Si      -2.04273342       1.70880471       1.80589037       0.00000000
Si      -0.10090026       3.08315943       1.25375420       0.00000000
Si       1.58579892      -1.08198180      -2.86066699       0.00000000
Si      -3.31309278       1.57605750      -0.19403829       0.00000000
Si       2.00666736       0.90051120       3.08921165       0.00000000
Si       0.01855431      -0.25834311       3.86306666       0.00000000
