10
Lattice="16.28999089631971 0.0 0.0 0.0 16.28999089631971 0.0 0.0 0.0 34.3005442915855" Properties=species:S:1:pos:R:3:initial_magmoms:R:1 pbc="T T T"
Si      -1.34918667      -1.35501849      -1.36497034       0.00000000
Si      -1.35718506       1.35641943       1.35806221       0.00000000
Si       1.35865116      -1.35597960       1.35819941       0.00000000
Si       1.36647036       1.35446463      -1.36949116       0.00000000
Si      -2.39855589       0.24452919      -2.76108903       0.00000000
Si       2.71339272       2.71534752       0.00264114       0.00000000
Si      -2.71622718       2.71363707      -0.00209233       0.00000000
Si      -0.00006516       2.71485882       2.71526690       0.00000000
Si      -2.71490769      -0.00009774       2.71526690       0.00000000
Si       2.71500543       0.00000000       2.71557561       0.00000000
