10
Lattice="16.28999089631971 0.0 0.0 0.0 16.28999089631971 0.0 0.0 0.0 34.3005442915855" Properties=species:S:1:pos:R:3:initial_magmoms:R:1 pbc="T T T"
Si      -1.35625653      -1.35725525      -1.35638148       0.00000000
Si       1.35755973       1.35762000      -1.35586697       0.00000000
Si       1.35729909      -1.35670142       1.35710179       0.00000000
Si      -1.35731538       1.35802725       1.35761630       0.00000000
Si      -0.00169416      -2.71412155      -2.71252286       0.00000000
Si       0.00410508       2.71081401      -2.71759934       0.00000000
Si      -2.71360449       0.00143841       2.71499250       0.00000000
Si       2.71409319       0.00005701       2.71451229       0.00000000
Si       0.00135207      -2.71410526       2.71468379       0.00000000
Si       2.71280628      -0.00126248      -2.71663893       0.00000000
