10
Lattice="16.28999089631971 0.0 0.0 0.0 16.28999089631971 0.0 0.0 0.0 34.3005442915855" Properties=species:S:1:pos:R:3:initial_magmoms:R:1 pbc="T T T"
Si      -1.77621273      -1.59998004       0.05765925       0.00000000
Si       0.92040129       0.36302102       2.18528890       0.00000000
Si       1.76833393      -0.82158778      -1.89301380       0.00000000
Si      -0.90401355       1.74876245      -1.89074996       0.00000000
Si       0.12611718       0.14171323      -3.38385349       0.00000000
Si      -0.58412682       3.60174995       0.84595480       0.00000000
Si       3.03274744      -2.27362041       0.96436034       0.00000000
Si      -3.70235862      -0.82078305       1.22429001       0.00000000
Si       2.19593991      -1.44980253       3.02294296       0.00000000
Si      -1.68301764      -3.17230713       1.80571886       0.00000000
