10
Lattice="16.28999089631971 0.0 0.0 0.0 16.28999089631971 0.0 0.0 0.0 34.3005442915855" Properties=species:S:1:pos:R:3:initial_magmoms:R:1 pbc="T T T"
Si      -1.35653346      -1.35721764       1.35689599       0.00000000
Si       1.35827649       1.35586557       1.35713609       0.00000000
Si       1.35754344      -1.35710361      -1.35741050       0.00000000
Si      -1.35736425       1.35762489      -1.35747910       0.00000000
Si       2.71252935       0.00386073       2.71310597       0.00000000
Si      -0.00288333      -2.71223613       2.71403208       0.00000000
Si       0.00003258      -2.71500543      -2.71344897       0.00000000
Si      -2.71340901       0.00151497      -2.71526690       0.00000000
Si      -2.71484253      -2.71459818       0.00003430       0.00000000
Si       2.71473815      -2.71503801      -0.00020580       0.00000000
