10
Lattice="16.28999089631971 0.0 0.0 0.0 16.28999089631971 0.0 0.0 0.0 34.3005442915855" Properties=species:S:1:pos:R:3:initial_magmoms:R:1 pbc="T T T"
Si      -0.59300487      -0.67437342       2.20099856       0.00000000
Si       1.86616611       1.43133714      -0.39918996       0.00000000
Si       0.83105064      -2.05078068      -0.97890378       0.00000000
Si      -1.94202864       0.66798774      -1.28548222       0.00000000
Si      -0.82728765      -0.53129835      -3.14035379       0.00000000
Si       3.10724601      -1.47152457      -0.25001681       0.00000000
Si      -0.56197242      -3.56596245       0.47753244       0.00000000
Si      -2.18836602      -2.35087506       1.76088803       0.00000000
Si       1.26317547       2.65890267      -2.52421277       0.00000000
Si       2.64670146       1.96664283       2.06606014       0.00000000
