10
Lattice="16.28999089631971 0.0 0.0 0.0 16.28999089631971 0.0 0.0 0.0 34.3005442915855" Properties=species:S:1:pos:R:3:initial_magmoms:R:1 pbc="T T T"
Si       1.86605208      -0.29841651       1.40646030       0.00000000
Si      -0.12465108      -1.29775914      -1.97519795       0.00000000
Si       0.62988543       2.29433247      -0.41023474       0.00000000
Si      -1.94139045      -0.76608612       1.25759586       0.00000000
Si      -0.71056166       3.29346333       1.28507061       0.00000000
Si       3.68290836      -0.38654541      -0.17994076       0.00000000
Si      -3.77075123       0.12442302      -0.05227406       0.00000000
Si       1.49406993       1.38337938       3.19375976       0.00000000
Si       1.55323521      -2.37288285       2.60389297       0.00000000
Si      -1.05110248       0.10287135      -3.70260862       0.00000000
