10
Lattice="16.28999089631971 0.0 0.0 0.0 16.28999089631971 0.0 0.0 0.0 34.3005442915855" Properties=species:S:1:pos:R:3:initial_magmoms:R:1 pbc="T T T"
Si      -1.35523309       1.35423657       1.36015454       0.00000000
Si       1.35838238       1.35612621      -1.35720470       0.00000000
Si      -1.35741974      -1.35843939      -1.35686169       0.00000000
Si       1.36149377      -1.35946566       1.36221258       0.00000000
Si      -0.02071111      -2.71658556       2.71019042       0.00000000
Si      -2.71388046       2.71389771       0.00161213       0.00000000
Si       2.71555115       2.71264338      -0.00030871       0.00000000
Si       0.00024109       2.71417464      -2.71444369       0.00000000
Si      -2.71446690      -0.00112401      -2.71420359       0.00000000
Si       2.71571405      -0.00128691      -2.71437509       0.00000000
