10
Lattice="16.28999089631971 0.0 0.0 0.0 16.28999089631971 0.0 0.0 0.0 34.3005442915855" Properties=species:S:1:pos:R:3:initial_magmoms:R:1 pbc="T T T"
Si       1.35452979      -1.35653346      -1.36217828       0.00000000
Si       1.37026593       1.36282140       1.34650292       0.00000000
Si      -1.36149377       1.35946566      -1.36221258       0.00000000
Si      -1.38220487      -1.35711990       1.34797784       0.00000000
Si       2.61816138      -0.05742225       2.74994477       0.00000000
Si       2.71252935      -2.71259451      -0.00318995       0.00000000
Si       2.70946683       2.71625976      -0.00545379       0.00000000
Si       2.71125873       0.00140094      -2.71855976       0.00000000
Si      -2.71672686       2.71370223      -0.00205803       0.00000000
Si      -2.72110508      -2.71033020      -0.00572819       0.00000000
