10
Lattice="16.28999089631971 0.0 0.0 0.0 16.28999089631971 0.0 0.0 0.0 34.3005442915855" Properties=species:S:1:pos:R:3:initial_magmoms:R:1 pbc="T T T"
Si       1.35496962      -1.35622232      -1.35919413       0.00000000
Si      -1.36133086       1.35889551      -1.35802791       0.00000000
Si      -1.37046955      -1.35505433       1.35456355       0.00000000
Si       1.36062225       1.36376622       1.39044194       0.00000000
Si       2.71000440      -2.71064690       0.00006860       0.00000000
Si      -2.71774934      -2.71065361      -0.00106332       0.00000000
Si       2.71262709       0.00198738      -2.71581571       0.00000000
Si      -0.00211770      -2.71274525      -2.71609012       0.00000000
Si       2.71397916       2.71844262      -0.00024010       0.00000000
Si      -0.00219915       2.71700910      -2.71560991       0.00000000
