10
Lattice="16.28999089631971 0.0 0.0 0.0 16.28999089631971 0.0 0.0 0.0 34.3005442915855" Properties=species:S:1:pos:R:3:initial_magmoms:R:1 pbc="T T T"
Si      -1.75671360       0.11078829       1.52699248       0.00000000
Si       2.22632172       0.70553619       0.32918251       0.00000000
Si      -0.76942557       1.56043539      -1.60197352       0.00000000
Si       0.63840510      -2.29141656      -0.24696406       0.00000000
Si       2.77811289      -1.38588804      -0.73512968       0.00000000
Si       2.08287198       1.28741499       2.58063719       0.00000000
Si      -2.48848158       2.36537316       1.29512068       0.00000000
Si      -1.10856708      -3.10456449      -1.62502349       0.00000000
Si      -2.98238949       1.93904757      -0.96943683       0.00000000
Si       0.35451927       3.54415014      -1.05059196       0.00000000
