10
Lattice="16.28999089631971 0.0 0.0 0.0 16.28999089631971 0.0 0.0 0.0 34.3005442915855" Properties=species:S:1:pos:R:3:initial_magmoms:R:1 pbc="T T T"
Si       1.75671360      -0.11078829      -1.52699248       0.00000000
Si       0.68181795      -1.27127160       1.85480297       0.00000000
Si      -1.82591873      -1.32063030      -0.75752794       0.00000000
Si      -0.73176798       2.25458487      -0.23187181       0.00000000
Si      -1.22567589       1.82825928      -2.49642931       0.00000000
Si       0.98728803       1.44964710      -3.12896600       0.00000000
Si      -0.65862914      -0.27214074       3.55010832       0.00000000
Si      -2.48656166      -0.16452900      -2.79782836       0.00000000
Si      -2.33043830       2.52361422       1.50315359       0.00000000
Si       3.02418963      -0.65708973       2.19835741       0.00000000
