10
Lattice="16.28999089631971 0.0 0.0 0.0 16.28999089631971 0.0 0.0 0.0 34.3005442915855" Properties=species:S:1:pos:R:3:initial_magmoms:R:1 pbc="T T T"
Si      -0.68181795       1.27127160      -1.85480297       0.00000000
Si      -1.34044709       0.99913086       1.69530535       0.00000000
Si      -0.62988543      -2.29433247       0.41023474       0.00000000
Si       2.34237168       0.61418187       0.34355444       0.00000000
Si       1.23616665      -2.59274898       1.81669504       0.00000000
Si       2.04248907       1.38916233       2.52356105       0.00000000
Si      -2.50773668      -0.04935870      -2.61233091       0.00000000
Si       0.09197334       2.64401361       2.54637093       0.00000000
Si       1.07489565       1.16048331      -3.38179545       0.00000000
Si       0.86418450      -0.91095309       3.60399450       0.00000000
