10
Lattice="16.28999089631971 0.0 0.0 0.0 16.28999089631971 0.0 0.0 0.0 34.3005442915855" Properties=species:S:1:pos:R:3:initial_magmoms:R:1 pbc="T T T"
Si       1.35055340       1.35843939       1.38628814       0.00000000
Si      -1.36395585      -1.35462753       1.38625384       0.00000000
Si      -1.44019305       1.39310451      -1.33195262       0.00000000
Si       1.31588665      -1.41501456      -1.54538445       0.00000000
Si       2.70574945       2.71047681      -0.00564244       0.00000000
Si       2.72076883      -2.71515204      -0.01150098       0.00000000
Si      -2.71537425      -2.72852613       0.01203264       0.00000000
Si       2.70904003       0.00255753       2.74678569       0.00000000
Si      -0.00610491      -2.71296918       2.74784901       0.00000000
Si      -2.73176199       2.73184486       0.04057757       0.00000000
