10
Lattice="16.28999089631971 0.0 0.0 0.0 16.28999089631971 0.0 0.0 0.0 34.3005442915855" Properties=species:S:1:pos:R:3:initial_magmoms:R:1 pbc="T T T"
Si       1.35655627       1.35604782      -1.35816511       0.00000000
Si      -1.35907537       1.35813946       1.35686169       0.00000000
Si      -1.35847391      -1.35923760      -1.35775350       0.00000000
Si       1.35766399      -1.36210464       1.35775350       0.00000000
Si       2.71364359       2.71257075      -0.00126912       0.00000000
Si      -0.01179559       2.71373874       2.71248856       0.00000000
Si      -0.00113541       2.71344715      -2.71533551       0.00000000
Si       2.71426261      -0.00174303      -2.71547271       0.00000000
Si      -2.71694461       2.71307085      -0.00102902       0.00000000
Si      -2.71604866      -0.00144981      -2.71533551       0.00000000
