10
Lattice="16.28999089631971 0.0 0.0 0.0 16.28999089631971 0.0 0.0 0.0 34.3005442915855" Properties=species:S:1:pos:R:3:initial_magmoms:R:1 pbc="T T T"
Si       1.78225632      -0.95522117      -1.24373843       0.00000000
Si      -0.94360802       1.86108363      -1.14533011       0.00000000
Si      -1.78115023      -1.71576054       0.43616596       0.00000000
Si       2.36967372       0.23025915       1.84746265       0.00000000
Si      -2.13725519       0.50930685      -2.61977414       0.00000000
Si       0.47205162      -2.32740836      -2.66227253       0.00000000
Si      -0.73961161      -3.43998278      -0.95931816       0.00000000
Si      -3.42336698      -0.75245954      -1.05467373       0.00000000
Si       2.54200563      -2.71266686       0.36289996       0.00000000
Si       1.56727719      -2.31449039       2.47890172       0.00000000
