10
Lattice="16.28999089631971 0.0 0.0 0.0 16.28999089631971 0.0 0.0 0.0 34.3005442915855" Properties=species:S:1:pos:R:3:initial_magmoms:R:1 pbc="T T T"
Si      -1.78567396       1.22689764      -1.05206688       0.00000000
Si       1.26001521      -1.62821808      -1.27193349       0.00000000
Si      -0.53149383      -1.83257613       1.53515602       0.00000000
Si       1.49594328       1.95421356       0.27015124       0.00000000
Si       0.52121484       2.35239003       2.38615300       0.00000000
Si       2.44946214      -0.11438838      -2.69849393       0.00000000
Si      -0.57401073       2.33947206      -2.75502126       0.00000000
Si       3.74621130      -0.66964932      -0.08592291       0.00000000
Si      -1.56279907       1.49908725       3.20079138       0.00000000
Si      -1.43081586      -0.85302585       3.52030113       0.00000000
