10
Lattice="16.28999089631971 0.0 0.0 0.0 16.28999089631971 0.0 0.0 0.0 34.3005442915855" Properties=species:S:1:pos:R:3:initial_magmoms:R:1 pbc="T T T"
Si      -0.83680753       0.82381788       2.05858262       0.00000000
Si       0.13198321      -2.35211310       0.31950975       0.00000000
Si       2.08401391       0.85330278      -0.81463838       0.00000000
Si      -1.26441351       1.45203263      -2.85737414       0.00000000
Si      -2.11234615       2.63664143       1.22092856       0.00000000
Si       0.82383580       2.23607847       2.88395708       0.00000000
Si       3.66565888       0.47073213       0.82067528       0.00000000
Si       1.56279907      -1.49908725      -3.20079138       0.00000000
Si       1.03130524      -3.33166338      -1.66563536       0.00000000
Si      -3.03274744       2.27362041      -0.96436034       0.00000000
