10
Lattice="10.86 0.0 0.0 0.0 10.86 0.0 0.0 0.0 10.86" Properties=species:S:1:pos:R:3:initial_magmoms:R:1 pbc="T T T"
Si       1.26519000      -1.32603858      -1.34705268       0.00000000
Si       1.26519000       1.38896142       1.36794732       0.00000000
Si      -1.31599308       1.43455170      -1.27153224       0.00000000
Si      -1.44981000      -1.32603858       1.36794732       0.00000000
Si       2.62269000      -2.68353858       0.01044732       0.00000000
Si       2.62269000       0.03146142       2.72544732       0.00000000
Si       2.72972616      -0.02270826      -2.65587816       0.00000000
Si      -0.09231000      -2.68353858      -2.70455268       0.00000000
Si      -0.09231000      -2.68353858       2.72544732       0.00000000
Si       2.85722256       2.56629402       0.16880784       0.00000000
