10
Lattice="16.28999089631971 0.0 0.0 0.0 16.28999089631971 0.0 0.0 0.0 34.281931910070035" Properties=species:S:1:pos:R:3:initial_magmoms:R:1 pbc="T T T"
Si      -0.00693954       0.38494899       2.33747271       0.00000000
Si      -0.24718446      -2.39042718      -0.05464543       0.00000000
Si       0.20421144       0.92483217      -2.23830287       0.00000000
Si       2.24158545       1.07729028      -0.60291667       0.00000000
Si       1.76526585      -1.47952296       2.46562275       0.00000000
Si       2.26509192      -0.21284514      -2.63720765       0.00000000
Si       0.94307697       3.13821963      -1.94522647       0.00000000
Si       1.81864818      -3.36422709      -0.42091380       0.00000000
Si      -1.71707026      -3.09176055      -1.76510910       0.00000000
Si      -1.87082179      -0.50805252       3.53245479       0.00000000
