10
Lattice="16.28999089631971 0.0 0.0 0.0 16.28999089631971 0.0 0.0 0.0 34.281931910070035" Properties=species:S:1:pos:R:3:initial_magmoms:R:1 pbc="T T T"
Si      -1.40053275       0.86181431      -1.62835839       0.00000000
Si      -0.22819032       1.91145720       1.36980392       0.00000000
Si      -1.28229993      -1.63198337       1.15070797       0.00000000
Si       2.16850851      -0.70366514      -0.74967771       0.00000000
Si       1.78781121       1.63099227       2.56946651       0.00000000
Si      -3.04593678      -1.97829248      -0.45807543       0.00000000
Si      -2.40818328      -1.00929812      -2.57676857       0.00000000
Si       3.27671721       1.39661175      -1.09397134       0.00000000
Si       2.96997651      -2.00701175       1.06088926       0.00000000
Si      -3.34173060       1.68272931      -0.39571656       0.00000000
