10
Lattice="16.28999089631971 0.0 0.0 0.0 16.28999089631971 0.0 0.0 0.0 34.281931910070035" Properties=species:S:1:pos:R:3:initial_magmoms:R:1 pbc="T T T"
Si      -1.86385293      -0.33523191       1.35245725       0.00000000
Si       0.22819032      -1.91145720      -1.36980392       0.00000000
Si       2.01600153      -0.28046493       1.19966260       0.00000000
Si      -0.32985621       2.09960181      -1.19702289       0.00000000
Si      -1.17234243      -1.04964289      -2.99816231       0.00000000
Si       1.91132199       2.76242562      -0.66308150       0.00000000
Si       3.32148213       0.79649955      -0.40007037       0.00000000
Si      -1.45644003       1.14437250       3.05016803       0.00000000
Si      -3.11354028      -0.22872789      -1.76552048       0.00000000
Si      -1.77626160      -2.58454601       1.94464367       0.00000000
