10
Lattice="16.28999089631971 0.0 0.0 0.0 16.28999089631971 0.0 0.0 0.0 34.281931910070035" Properties=species:S:1:pos:R:3:initial_magmoms:R:1 pbc="T T T"
Si       1.30548060       1.07696448      -1.59973296       0.00000000
Si      -2.01600153       0.28046493      -1.19966260       0.00000000
Si       0.17008389       1.13549445       2.09654700       0.00000000
Si       0.80889624      -2.23105301       0.36085182       0.00000000
Si      -1.78781121      -1.63099227      -2.56946651       0.00000000
Si       3.37748715       1.07776269      -0.29009387       0.00000000
Si      -0.10467954       3.04289055      -1.86274409       0.00000000
Si      -1.79765037       0.36833319       3.08013046       0.00000000
Si       3.11057550      -2.05822179       0.88618844       0.00000000
Si      -3.87985446      -0.05476698       0.15279466       0.00000000
