10
Lattice="16.28999089631971 0.0 0.0 0.0 16.28999089631971 0.0 0.0 0.0 34.281931910070035" Properties=species:S:1:pos:R:3:initial_magmoms:R:1 pbc="T T T"
Si      -1.35646830       1.35666378       1.35893654       0.00000000
Si      -1.34962650      -1.35426915      -1.36854577       0.00000000
Si       1.35762489      -1.36054080       1.35811377       0.00000000
Si       1.35913986       1.34921925      -1.39291681       0.00000000
Si       0.14595840      -2.52467307      -2.81053719       0.00000000
Si      -0.15555321       2.68043805      -2.73522318       0.00000000
Si       2.71404432       2.71339272      -0.00462806       0.00000000
Si       0.00032580       2.71256193       2.71626183       0.00000000
Si      -2.71748314       2.71153566       0.00514229       0.00000000
Si      -2.71421862      -0.00218286       2.71591901       0.00000000
