10
Lattice="16.28999089631971 0.0 0.0 0.0 16.28999089631971 0.0 0.0 0.0 34.281931910070035" Properties=species:S:1:pos:R:3:initial_magmoms:R:1 pbc="T T T"
Si       2.35628334      -0.55117215      -0.31865074       0.00000000
Si      -0.21841632       1.49597586       1.93504473       0.00000000
Si      -0.72255924      -2.36595797       0.74984912       0.00000000
Si       1.54321686       1.46943945      -1.53401446       0.00000000
Si       1.08036909      -1.26760635      -2.91067477       0.00000000
Si       2.90082546      -0.21574476       1.98694760       0.00000000
Si       0.03725523      -3.51709964      -1.15427329       0.00000000
Si      -1.94659636       1.62535104      -2.87035920       0.00000000
Si       2.28810969      -2.77316887      -1.32414036       0.00000000
Si       2.02069305       1.78163730       2.88444908       0.00000000
