10
Lattice="16.28999089631971 0.0 0.0 0.0 16.28999089631971 0.0 0.0 0.0 34.281931910070035" Properties=species:S:1:pos:R:3:initial_magmoms:R:1 pbc="T T T"
Si       1.35016407       1.35397593      -1.38718487       0.00000000
Si      -1.36834371      -1.36438524      -1.38464800       0.00000000
Si       1.44868599      -1.29585321       1.47727784       0.00000000
Si      -1.45595133       1.35467640       1.41824432       0.00000000
Si      -0.26409348      -2.37793275       2.72136984       0.00000000
Si       2.69643483       2.70438435       0.00359960       0.00000000
Si       2.70528030      -2.71270528      -0.02183760       0.00000000
Si      -2.73302869      -2.69444093      -0.01868366       0.00000000
Si      -2.71311253       2.72406267      -0.02512867       0.00000000
Si       2.70791928      -0.00410508      -2.74625854       0.00000000
