10
Lattice="16.28999089631971 0.0 0.0 0.0 16.28999089631971 0.0 0.0 0.0 34.281931910070035" Properties=species:S:1:pos:R:3:initial_magmoms:R:1 pbc="T T T"
Si      -1.35731538       1.35757602      -1.35986215       0.00000000
Si       1.35775521      -1.35808101      -1.35907367       0.00000000
Si       1.34627076       1.35040842       1.39078447       0.00000000
Si      -1.35016407      -1.35397593       1.38718487       0.00000000
Si       2.70809847      -2.71210581       0.00068564       0.00000000
Si       2.71612944       2.71207323       0.00274256       0.00000000
Si       2.71344159      -0.00055386      -2.71547334       0.00000000
Si      -0.00123804       2.71386513      -2.71567904       0.00000000
Si      -2.71766070       2.71401174      -0.00071992       0.00000000
Si      -2.71614573      -0.00057015      -2.71571332       0.00000000
