10
Lattice="16.28999089631971 0.0 0.0 0.0 16.28999089631971 0.0 0.0 0.0 34.281931910070035" Properties=species:S:1:pos:R:3:initial_magmoms:R:1 pbc="T T T"
Si       1.30663719       2.06192304       0.40812663       0.00000000
Si       0.81306648      -2.02061160       1.21536373       0.00000000
Si       2.41741971      -0.05792724       0.85228359       0.00000000
Si      -1.54321686      -1.46943945       1.53401446       0.00000000
Si      -0.48467637       2.46826080      -1.16116396       0.00000000
Si      -0.46284777      -2.73704580      -1.37666031       0.00000000
Si      -1.65470562       0.99556335      -2.67978583       0.00000000
Si       1.24993170      -1.65496626      -2.62075231       0.00000000
Si       3.23262018      -0.80687628      -1.24913145       0.00000000
Si      -1.74874779       3.04668612       1.14008056       0.00000000
