10
Lattice="16.28999089631971 0.0 0.0 0.0 16.28999089631971 0.0 0.0 0.0 34.281931910070035" Properties=species:S:1:pos:R:3:initial_magmoms:R:1 pbc="T T T"
Si       0.81520047      -0.74894904      -2.10141504       0.00000000
Si      -1.11078252       2.11985028      -0.44415696       0.00000000
Si       1.92409335       0.34034697       1.55811468       0.00000000
Si      -1.60435323      -1.96268436       0.36308014       0.00000000
Si      -2.41741971       0.05792724      -0.85228359       0.00000000
Si      -1.05981111      -1.62725697       2.66867848       0.00000000
Si       1.29298617      -1.77712497       2.53559595       0.00000000
Si       1.73864799      -3.19302082       0.58604995       0.00000000
Si       1.51682706       1.13604831      -3.43950815       0.00000000
Si       1.42788366       2.36408625       2.83100352       0.00000000
