10
Lattice="16.28999089631971 0.0 0.0 0.0 16.28999089631971 0.0 0.0 0.0 34.281931910070035" Properties=species:S:1:pos:R:3:initial_magmoms:R:1 pbc="T T T"
Si       0.46178892       0.04292415       2.33508082       0.00000000
Si      -2.41886952       0.18173124       0.26962755       0.00000000
Si       0.49620969      -2.02373928      -1.27288884       0.00000000
Si       1.15439085       2.02540086      -0.73445652       0.00000000
Si      -0.55788363       2.11853079       2.93182674       0.00000000
Si      -2.67032196       1.83769119       1.96757830       0.00000000
Si       2.18023731       1.44407592      -2.84564191       0.00000000
Si      -1.42788366      -2.36408625      -2.83100352       0.00000000
Si      -3.36782718      -1.99396116       0.73517644       0.00000000
Si      -3.46170645       1.19715210      -1.59308227       0.00000000
