10
Lattice="16.28999089631971 0.0 0.0 0.0 16.28999089631971 0.0 0.0 0.0 34.281931910070035" Properties=species:S:1:pos:R:3:initial_magmoms:R:1 pbc="T T T"
Si       1.35299853       1.35076680      -1.37323211       0.00000000
Si      -1.36024758      -1.36669842      -1.38087699       0.00000000
Si       1.33698546      -1.31696505       1.47779206       0.00000000
Si      -1.33884252       1.40783067       1.45304050       0.00000000
Si      -2.69231509       2.70259245      -0.02032920       0.00000000
Si      -2.70586348      -2.71062342      -0.01810087       0.00000000
Si       2.70368388      -2.73030174       0.01062740       0.00000000
Si       2.71042794       2.72598489       0.01546116       0.00000000
Si      -0.00035838       2.70777267      -2.73868223       0.00000000
Si       2.71516833      -0.00858483      -2.73710526       0.00000000
