10
Lattice="16.28999089631971 0.0 0.0 0.0 16.28999089631971 0.0 0.0 0.0 34.281931910070035" Properties=species:S:1:pos:R:3:initial_magmoms:R:1 pbc="T T T"
Si       0.88316235       1.11705417      -1.88197627       0.00000000
Si       0.21400173      -2.38971042      -0.23016902       0.00000000
Si      -2.24435475       0.01133784       0.89026799       0.00000000
Si       1.64379132       1.11293280       1.50984569       0.00000000
Si      -0.46421613      -2.88258066       1.97697155       0.00000000
Si       3.18259359       0.67403133      -1.45184063       0.00000000
Si       3.52145817       0.01708821       0.77388076       0.00000000
Si      -0.16778700       3.21101964      -1.69743653       0.00000000
Si       0.94180635       0.51680025       3.61012942       0.00000000
Si      -3.75191280       0.12854439      -0.92540699       0.00000000
