10
Lattice="16.28999089631971 0.0 0.0 0.0 16.28999089631971 0.0 0.0 0.0 34.281931910070035" Properties=species:S:1:pos:R:3:initial_magmoms:R:1 pbc="T T T"
Si      -0.83862549      -1.68438600       1.36537298       0.00000000
Si      -0.10311570      -1.30535028      -1.96863045       0.00000000
Si       1.82094507       0.95262291       1.24200938       0.00000000
Si      -1.65532464       1.83226662      -0.11294844       0.00000000
Si      -2.21394132      -0.35631117       2.65209116       0.00000000
Si       0.51411240       2.35401903       2.63412056       0.00000000
Si      -2.07576954      -0.20336436      -2.91992031       0.00000000
Si      -2.55208914      -2.76017760       0.14861911       0.00000000
Si       1.94072544      -0.55897506      -3.20192364       0.00000000
Si      -3.50894745       1.01359638       1.17354489       0.00000000
