10
Lattice="16.28999089631971 0.0 0.0 0.0 16.28999089631971 0.0 0.0 0.0 34.281931910070035" Properties=species:S:1:pos:R:3:initial_magmoms:R:1 pbc="T T T"
Si      -1.36301688      -1.34143263      -1.34894678       0.00000000
Si      -1.35203742       1.35775937       1.35831947       0.00000000
Si       1.36254447      -1.35575154       1.35759954       0.00000000
Si       1.36503684       1.36889757      -1.36691738       0.00000000
Si       0.01229895      -2.66950746      -2.63566496       0.00000000
Si      -2.71029762      -2.71437012      -0.00123415       0.00000000
Si      -2.71101438       0.00013032       2.71537050       0.00000000
Si      -2.71109583       2.71590531      -0.00335963       0.00000000
Si       0.00343719      -2.71430496       2.71554191       0.00000000
Si       0.00335574       2.71565933       2.71588473       0.00000000
