10
Lattice="16.28999089631971 0.0 0.0 0.0 16.28999089631971 0.0 0.0 0.0 34.281931910070035" Properties=species:S:1:pos:R:3:initial_magmoms:R:1 pbc="T T T"
Si       0.74183031      -2.08427292       0.93168058       0.00000000
Si      -1.91694204      -0.08009793      -1.47624938       0.00000000
Si       0.08661393       1.99938573       1.44152176       0.00000000
Si       2.10610152       1.38219021      -0.34377941       0.00000000
Si      -0.36346248       1.22872212      -2.76031414       0.00000000
Si      -2.48746671      -0.19837962       2.16236835       0.00000000
Si       0.80664822       2.88727218      -1.53908819       0.00000000
Si      -1.16929620      -2.28794679       2.21235143       0.00000000
Si      -3.34642212       0.76305618       0.22399827       0.00000000
Si      -1.14684858       1.32313896       3.36432783       0.00000000
