10
Lattice="16.28999089631971 0.0 0.0 0.0 16.28999089631971 0.0 0.0 0.0 34.281931910070035" Properties=species:S:1:pos:R:3:initial_magmoms:R:1 pbc="T T T"
Si      -0.94931604      -2.04907023      -0.54885404       0.00000000
Si       2.23956549      -0.27228735      -0.65824774       0.00000000
Si      -0.85496436       1.38381921      -1.74693966       0.00000000
Si      -0.07553673       0.45234072       2.35222179       0.00000000
Si       2.93327514      -1.56944376       1.16551777       0.00000000
Si       2.22389451       0.00931788       2.78235743       0.00000000
Si      -3.23617140      -1.70292402      -0.02735700       0.00000000
Si      -2.19558249      -0.13769937      -2.94889915       0.00000000
Si      -2.89012293       2.19999708       0.92797813       0.00000000
Si      -0.87741198      -2.22726654      -2.89891606       0.00000000
