10
Lattice="16.28999089631971 0.0 0.0 0.0 16.28999089631971 0.0 0.0 0.0 34.281931910070035" Properties=species:S:1:pos:R:3:initial_magmoms:R:1 pbc="T T T"
Si      -0.70198497      -0.59613255       2.10028373       0.00000000
Si       1.87766685      -1.09584459      -0.73596493       0.00000000
Si       0.97951770       2.18230614       0.48289556       0.00000000
Si      -1.64379132      -1.11293280      -1.50984569       0.00000000
Si       1.53880227      -0.43890147      -2.96168632       0.00000000
Si      -0.76062897       0.00412137      -3.39182196       0.00000000
Si      -0.97870320       3.45107301       0.78190274       0.00000000
Si      -0.72835848      -2.97649251       2.12644086       0.00000000
Si      -2.76286545       0.54154476       2.49918851       0.00000000
Si       3.91930884      -0.48731535       0.22070720       0.00000000
