10
Lattice="16.28999089631971 0.0 0.0 0.0 16.28999089631971 0.0 0.0 0.0 34.281931910070035" Properties=species:S:1:pos:R:3:initial_magmoms:R:1 pbc="T T T"
Si       0.02350647      -1.29013542      -2.03429098       0.00000000
Si       1.97265384      -1.10198592       0.95128986       0.00000000
Si      -2.24158545      -1.07729028       0.60291667       0.00000000
Si      -2.03737401      -0.15245811      -1.63538619       0.00000000
Si      -1.29850848       2.06092935      -1.34230979       0.00000000
Si       0.42044490       2.03563098       2.80697187       0.00000000
Si       2.07576954       0.20336436       2.91992031       0.00000000
Si      -2.24852499      -0.69234129       2.94038938       0.00000000
Si       1.20730077      -3.41366724       1.54436761       0.00000000
Si      -0.47631960      -2.55681324       3.06853943       0.00000000
