10
Lattice="16.28999089631971 0.0 0.0 0.0 16.28999089631971 0.0 0.0 0.0 34.281931910070035" Properties=species:S:1:pos:R:3:initial_magmoms:R:1 pbc="T T T"
Si      -1.85362281      -0.81867024       1.28649333       0.00000000
Si       0.89637354       1.88719391       1.23584175       0.00000000
Si       1.65532464      -1.83226662       0.11294844       0.00000000
Si      -0.42044490      -2.03563098      -2.80697187       0.00000000
Si       2.16943704       0.52175241       2.74706900       0.00000000
Si      -0.55861668      -2.18857779       2.76503960       0.00000000
Si      -2.66896989      -2.72797227       0.13341751       0.00000000
Si       3.47626971      -0.87964371       1.35495782       0.00000000
Si       0.81669915      -3.51665262       1.47832142       0.00000000
Si       1.55220894      -3.13761690      -1.85568201       0.00000000
