10
Lattice="16.28999089631971 0.0 0.0 0.0 16.28999089631971 0.0 0.0 0.0 34.281931910070035" Properties=species:S:1:pos:R:3:initial_magmoms:R:1 pbc="T T T"
Si       1.65439611       0.96700698      -1.48889942       0.00000000
Si      -0.84859497      -1.59212759      -1.66857112       0.00000000
Si      -1.68189363       1.82110797      -0.12362072       0.00000000
Si      -0.75844611      -0.62296381       2.56384427       0.00000000
Si       1.48509414      -0.15918588       2.53203062       0.00000000
Si      -2.49623073      -2.54864285      -0.31642241       0.00000000
Si       0.30985209       2.28532410      -2.97618758       0.00000000
Si      -2.40798780      -0.44383408      -2.99435702       0.00000000
Si       3.18866976       2.32924194      -0.05872498       0.00000000
Si      -3.66458211       0.97301799      -1.49524158       0.00000000
