10
Lattice="16.28999089631971 0.0 0.0 0.0 16.28999089631971 0.0 0.0 0.0 34.281931910070035" Properties=species:S:1:pos:R:3:initial_magmoms:R:1 pbc="T T T"
Si       0.95526189       0.08819406       2.12791498       0.00000000
Si       0.65085066       1.86150717      -1.27031770       0.00000000
Si       1.00895373      -1.90482947      -0.92821811       0.00000000
Si      -2.38252653       0.07975584       0.08807033       0.00000000
Si      -2.56595193       1.39110084       2.15177522       0.00000000
Si       0.85600692      -2.14755047       2.90337272       0.00000000
Si      -0.50469678      -3.62621006      -0.61090437       0.00000000
Si       3.10089924       1.01390589       1.86421822       0.00000000
Si      -0.49394538       1.39189905       3.46141432       0.00000000
Si       1.07914734      -1.55589700      -3.27762878       0.00000000
