10
Lattice="16.28999089631971 0.0 0.0 0.0 16.28999089631971 0.0 0.0 0.0 34.281931910070035" Properties=species:S:1:pos:R:3:initial_magmoms:R:1 pbc="T T T"
Si       0.13611924       1.65184672      -1.62924972       0.00000000
Si       0.40280283       0.29642424       2.28060679       0.00000000
Si      -0.33826185      -2.13654657      -1.06887695       0.00000000
Si       2.52970668       1.29020872       1.67361057       0.00000000
Si       1.67426991       0.96677077      -3.26254472       0.00000000
Si       3.84862653       0.09708514       0.20826285       0.00000000
Si       0.96094710       3.69961375      -0.76537884       0.00000000
Si      -1.22227128       1.67023813       3.36158528       0.00000000
Si       1.35889551      -2.68481910      -2.59939466       0.00000000
Si      -1.69212375       2.09400619      -3.03542679       0.00000000
