10
Lattice="16.28999089631971 0.0 0.0 0.0 16.28999089631971 0.0 0.0 0.0 34.281931910070035" Properties=species:S:1:pos:R:3:initial_magmoms:R:1 pbc="T T T"
Si      -1.32968754       0.78004665      -1.76953147       0.00000000
Si       0.78250644       2.08451727       0.80843697       0.00000000
Si       1.71548361      -0.97823079      -1.34776062       0.00000000
Si      -1.67330880      -1.55631402       1.14038910       0.00000000
Si       3.41257581      -1.23918030       0.23034043       0.00000000
Si      -3.45756879      -0.01873350      -1.32609443       0.00000000
Si      -0.53398620      -0.25549236      -3.70327348       0.00000000
Si       1.03733091       3.46809213      -1.30850779       0.00000000
Si       0.89065575      -3.02599782      -2.21163151       0.00000000
Si       1.76857272       0.15517854      -3.50546662       0.00000000
