10
Lattice="16.28999089631971 0.0 0.0 0.0 16.28999089631971 0.0 0.0 0.0 34.281931910070035" Properties=species:S:1:pos:R:3:initial_magmoms:R:1 pbc="T T T"
Si      -1.44467865       1.81276749       0.53394139       0.00000000
Si       0.99841410       0.40436667       2.18807981       0.00000000
Si      -1.16224263      -2.14765731      -0.02283178       0.00000000
Si       0.96997176      -0.74515347      -2.12637230       0.00000000
Si       0.89524953      -3.22686981       0.52759923       0.00000000
Si      -2.18808909      -1.56633237       2.08835361       0.00000000
Si      -1.93976433       2.08222038      -1.89126668       0.00000000
Si       0.22483458       2.60038899       2.33466943       0.00000000
Si       2.50224174      -2.37605940      -1.09304573       0.00000000
Si      -0.25998840      -1.10737791       3.44639882       0.00000000
