10
Lattice="16.28999089631971 0.0 0.0 0.0 16.28999089631971 0.0 0.0 0.0 34.281931910070035" Properties=species:S:1:pos:R:3:initial_magmoms:R:1 pbc="T T T"
Si      -0.60158970      -2.29776966       0.20768006       0.00000000
Si      -0.08581572       0.95641848      -2.18893686       0.00000000
Si       2.29451166      -0.50054283       0.47439364       0.00000000
Si      -0.71412102       1.78212600       1.44292732       0.00000000
Si       0.47451141       3.16146546      -1.66558859       0.00000000
Si      -2.12745771       0.34788924      -3.14560898       0.00000000
Si       3.58570593       0.95851989      -0.90864311       0.00000000
Si       0.82569123      -3.43989414      -1.45108642       0.00000000
Si      -2.70754461      -2.65395051      -0.79434709       0.00000000
Si       1.31471703      -0.17404236      -3.65527875       0.00000000
