10
Lattice="16.28999089631971 0.0 0.0 0.0 16.28999089631971 0.0 0.0 0.0 34.281931910070035" Properties=species:S:1:pos:R:3:initial_magmoms:R:1 pbc="T T T"
Si      -1.35438318      -1.35526284       1.35725672       0.00000000
Si       1.35734796      -1.35785295      -1.35777095       0.00000000
Si      -1.35796698       1.35778779      -1.35722244       0.00000000
Si       1.35861858       1.35799956       1.35780524       0.00000000
Si       2.71272483      -0.00158013      -2.71540478       0.00000000
Si       2.71469592       2.71454872      -0.00020569       0.00000000
Si      -2.71386513       0.00167787      -2.71564475       0.00000000
Si       2.71510317      -2.71480995      -0.00003428       0.00000000
Si       2.71306692       0.00156384       2.71691319       0.00000000
Si      -2.71508688      -2.71515204       0.00047995       0.00000000
