10
Lattice="16.28999089631971 0.0 0.0 0.0 16.28999089631971 0.0 0.0 0.0 34.281931910070035" Properties=species:S:1:pos:R:3:initial_magmoms:R:1 pbc="T T T"
Si      -1.35410493       1.35514881      -1.35794236       0.00000000
Si       1.35837133       1.35537687       1.35732529       0.00000000
Si      -1.35589683      -1.35992178       1.35753098       0.00000000
Si       1.35669020      -1.36000323      -1.36346176       0.00000000
Si      -2.71290270       2.71204065       0.00047995       0.00000000
Si       0.00067386       2.70326034      -2.72215832       0.00000000
Si       0.00141369       2.71261080       2.71530193       0.00000000
Si      -2.71409187      -0.00244350       2.71502768       0.00000000
Si       2.71612165       2.71422351       0.00034282       0.00000000
Si       2.71587730      -0.00185706       2.71533622       0.00000000
