10
Lattice="16.28999089631971 0.0 0.0 0.0 16.28999089631971 0.0 0.0 0.0 34.281931910070035" Properties=species:S:1:pos:R:3:initial_magmoms:R:1 pbc="T T T"
Si       0.77357952      -2.19602232      -0.14658962       0.00000000
Si      -0.78250644       1.53606555       1.60638366       0.00000000
Si       1.06318314       1.37601630      -1.79140335       0.00000000
Si      -1.66951323      -0.78762150      -1.80072804       0.00000000
Si      -0.22483458      -2.60038899      -2.33466943       0.00000000
Si      -3.02704038       1.61746668       0.94556477       0.00000000
Si       0.73114407       3.25744614       1.28906992       0.00000000
Si       0.80133768       3.60637861      -1.06034075       0.00000000
Si      -0.48482298      -3.70776690       1.11172939       0.00000000
Si      -3.35189556      -1.94973381      -0.54590579       0.00000000
