10
Lattice="16.28999089631971 0.0 0.0 0.0 16.28999089631971 0.0 0.0 0.0 34.281931910070035" Properties=species:S:1:pos:R:3:initial_magmoms:R:1 pbc="T T T"
Si      -1.35525958      -1.35808101       1.35787380       0.00000000
Si      -1.35750597       1.35723393      -1.35801093       0.00000000
Si       1.35883035       1.35814617       1.35585116       0.00000000
Si       1.35795069      -1.35808101      -1.35756526       0.00000000
Si      -2.71446361       2.71446786      -0.00003428       0.00000000
Si       2.71490769       2.71443528       0.00003428       0.00000000
Si      -0.00151497       2.71458189       2.71499340       0.00000000
Si       2.71433754      -0.00112401      -2.71581616       0.00000000
Si      -2.71505276      -2.71529865       0.00017141       0.00000000
Si      -0.00016290      -2.71585251      -2.71471914       0.00000000
