10
Lattice="16.28999089631971 0.0 0.0 0.0 16.28999089631971 0.0 0.0 0.0 34.281931910070035" Properties=species:S:1:pos:R:3:initial_magmoms:R:1 pbc="T T T"
Si       0.83474914       1.85797224       1.23812694       0.00000000
Si      -0.73438578      -1.84352953       1.34995467       0.00000000
Si      -1.30767975       1.30759830      -1.54519038       0.00000000
Si       1.39277938      -1.35149333      -1.54224213       0.00000000
Si      -2.68579746       2.61724914      -0.21217100       0.00000000
Si      -2.65347810      -2.70297070       0.14912649       0.00000000
Si       2.66985674       2.69762400      -0.10531415       0.00000000
Si       1.07093622      -3.48323273       1.19037219       0.00000000
Si       2.85629579      -2.61259949      -0.26187982       0.00000000
Si      -0.95821038       3.66586902       1.02167071       0.00000000
