10
Lattice="16.28999089631971 0.0 0.0 0.0 16.28999089631971 0.0 0.0 0.0 34.281931910070035" Properties=species:S:1:pos:R:3:initial_magmoms:R:1 pbc="T T T"
Si      -0.24610932       2.30127201      -0.32780402       0.00000000
Si      -2.14563735      -0.92571183       0.26369677       0.00000000
Si       0.84576051      -0.33145263      -2.22805256       0.00000000
Si       1.60720398      -0.56941695       1.72918161       0.00000000
Si       2.01959089       2.72621295      -0.84933534       0.00000000
Si       1.29464775      -2.59874370      -2.22904674       0.00000000
Si       2.82731099       0.88966206      -2.15383214       0.00000000
Si      -3.10089924      -1.01390589      -1.86421822       0.00000000
Si       3.65334920       0.26560845       1.01220889       0.00000000
Si       1.98735624      -2.87968823       1.49054495       0.00000000
