10
Lattice="16.28999089631971 0.0 0.0 0.0 16.28999089631971 0.0 0.0 0.0 34.281931910070035" Properties=species:S:1:pos:R:3:initial_magmoms:R:1 pbc="T T T"
Si      -0.95526189      -0.08819406      -2.12791498       0.00000000
Si       2.14563735       0.92571183      -0.26369677       0.00000000
Si      -1.44920727       1.30370499       1.33349933       0.00000000
Si      -0.09925497      -2.23574453       0.77545773       0.00000000
Si      -1.71611892      -1.83227949       2.50978164       0.00000000
Si       0.05369184      -1.99302353      -3.05613309       0.00000000
Si      -1.29021687       0.23420133       3.49302228       0.00000000
Si      -3.52121382       1.30290678       0.02386024       0.00000000
Si       1.75651812      -2.94567902      -1.59575626       0.00000000
Si       1.89952803       3.22698384      -0.59150078       0.00000000
