10
Lattice="16.28999089631971 0.0 0.0 0.0 16.28999089631971 0.0 0.0 0.0 34.281931910070035" Properties=species:S:1:pos:R:3:initial_magmoms:R:1 pbc="T T T"
Si      -2.11504473       0.20009007      -1.08053282       0.00000000
Si       1.32900336       1.98995382       0.12183805       0.00000000
Si       1.09546992      -2.01967397      -0.78951333       0.00000000
Si       0.05931189      -0.66959556       2.39027476       0.00000000
Si       3.23239719       0.89881704      -0.74480967       0.00000000
Si       3.21869991      -1.32135521       0.01402132       0.00000000
Si      -0.24568578      -3.55021721       0.38803740       0.00000000
Si      -2.54094678      -1.86639075      -2.06377345       0.00000000
Si      -3.65319540       0.88516602       0.55276218       0.00000000
Si       1.14173352       2.95728660       2.33717201       0.00000000
