10
Lattice="16.28999089631971 0.0 0.0 0.0 16.28999089631971 0.0 0.0 0.0 34.281931910070035" Properties=species:S:1:pos:R:3:initial_magmoms:R:1 pbc="T T T"
Si       1.90339383      -1.09113678      -0.86664772       0.00000000
Si      -0.00184077       2.00099844      -1.25657063       0.00000000
Si      -1.32900336      -1.98995382      -0.12183805       0.00000000
Si      -0.18726984       0.96733278       2.21533396       0.00000000
Si      -1.26969147      -2.65954938       2.26843670       0.00000000
Si       1.88969655      -3.31130902      -0.10781674       0.00000000
Si       2.25690361       2.51125011      -1.83175321       0.00000000
Si      -2.46027870       0.68202972       2.87289606       0.00000000
Si       3.86575451      -0.14502987       0.09214988       0.00000000
Si       1.59901011      -1.66777020      -3.22990830       0.00000000
