10
Lattice="16.28999089631971 0.0 0.0 0.0 16.28999089631971 0.0 0.0 0.0 34.281931910070035" Properties=species:S:1:pos:R:3:initial_magmoms:R:1 pbc="T T T"
Si       1.34273976      -1.29694953      -1.47004434       0.00000000
Si       0.45473535       2.33015418       0.16290783       0.00000000
Si       0.83657295      -1.42355541       1.77844478       0.00000000
Si      -2.02976658      -0.38579118      -1.43881349       0.00000000
Si      -3.34868643       0.80733240       0.02653423       0.00000000
Si      -2.41365672       1.39730733       2.13951809       0.00000000
Si      -1.96626816      -2.69932535      -1.21436955       0.00000000
Si       0.31692195      -3.44899115      -1.06613440       0.00000000
Si      -0.94734495       3.24109098      -1.49191623       0.00000000
Si       3.62664989      -0.91857029      -0.97364169       0.00000000
