10
Lattice="16.28999089631971 0.0 0.0 0.0 16.28999089631971 0.0 0.0 0.0 34.281931910070035" Properties=species:S:1:pos:R:3:initial_magmoms:R:1 pbc="T T T"
Si      -0.83474914      -1.85797224      -1.23812694       0.00000000
Si       1.83510760       0.83965176      -1.34344110       0.00000000
Si      -1.79295952       1.80789678      -0.21645624       0.00000000
Si      -2.14242889      -0.55037394      -2.78331733       0.00000000
Si       0.57794639       2.20903803      -2.78681408       0.00000000
Si       3.48981322      -0.15591159       1.33634473       0.00000000
Si       3.00513685       2.31234921       0.17518077       0.00000000
Si       1.94659636      -1.62535104       2.87035920       0.00000000
Si      -3.52054660       0.75927690      -1.45029794       0.00000000
Si      -0.75515195       3.58557561      -1.38499082       0.00000000
