10
Lattice="16.28999089631971 0.0 0.0 0.0 16.28999089631971 0.0 0.0 0.0 34.281931910070035" Properties=species:S:1:pos:R:3:initial_magmoms:R:1 pbc="T T T"
Si      -0.36727434      -1.94492826      -1.32314618       0.00000000
Si       0.39607506       1.86258231      -1.47388392       0.00000000
Si       1.83666492      -0.49125753       1.48358571       0.00000000
Si      -1.69668495       0.84069432       1.53031201       0.00000000
Si       1.73591127      -1.88156016      -2.49977131       0.00000000
Si       1.08620091       0.51407982       3.43165758       0.00000000
Si      -1.15820271      -0.13651020       3.67063706       0.00000000
Si       2.08277424      -2.79252954       1.81138973       0.00000000
Si       2.45970855       2.95964865      -0.79181022       0.00000000
Si      -1.01812500      -3.80643543      -0.05282849       0.00000000
