10
Lattice="16.28999089631971 0.0 0.0 0.0 16.28999089631971 0.0 0.0 0.0 34.281931910070035" Properties=species:S:1:pos:R:3:initial_magmoms:R:1 pbc="T T T"
Si       0.95425191       1.39028634      -1.58375758       0.00000000
Si       0.61932951       1.30486158       1.81762905       0.00000000
Si      -2.36969001       0.25376562      -0.02026063       0.00000000
Si       1.03671189      -1.99241361      -0.95211263       0.00000000
Si       1.21406112      -0.60211098       3.07416540       0.00000000
Si       0.03378546      -1.78515594      -3.03436405       0.00000000
Si      -0.02568933       0.51818490      -3.52922402       0.00000000
Si      -3.06572913      -1.91702349      -0.55845298       0.00000000
Si       3.24491491       0.87092856      -1.77419381       0.00000000
Si      -2.93283531       1.40827050      -1.97817142       0.00000000
