10
Lattice="16.28999089631971 0.0 0.0 0.0 16.28999089631971 0.0 0.0 0.0 34.281931910070035" Properties=species:S:1:pos:R:3:initial_magmoms:R:1 pbc="T T T"
Si       2.27629944      -0.43339545       0.03705879       0.00000000
Si      -0.77357952       2.19602232       0.14658962       0.00000000
Si      -1.25840250      -1.51174458       1.25831901       0.00000000
Si      -0.99841410      -0.40436667      -2.18807981       0.00000000
Si      -2.44309275       1.40840082      -1.65413842       0.00000000
Si       0.36281088      -3.26267523       0.94282222       0.00000000
Si       2.42644437      -2.16560889       1.62489592       0.00000000
Si       3.33275481       1.62248400       0.35142428       0.00000000
Si      -1.71102015      -0.38851650       3.30745408       0.00000000
Si      -3.18650319      -1.97069904      -0.09972620       0.00000000
