10
Lattice="16.28999089631971 0.0 0.0 0.0 16.28999089631971 0.0 0.0 0.0 34.281931910070035" Properties=species:S:1:pos:R:3:initial_magmoms:R:1 pbc="T T T"
Si      -1.35672138       1.35723393      -1.35797665       0.00000000
Si      -1.35766620      -1.35780734       1.35667393       0.00000000
Si       1.35736597      -1.35764281      -1.35787380       0.00000000
Si       1.35979318       1.35721764       1.35770239       0.00000000
Si      -2.71032264      -0.00162900       2.71602186       0.00000000
Si      -2.71491642       2.71471221      -0.00047995       0.00000000
Si       2.71488986      -0.00055386      -2.71489055       0.00000000
Si      -0.00004121      -2.71501632      -2.71502768       0.00000000
Si       2.71505276       2.71529865      -0.00017141       0.00000000
Si      -2.71555173      -0.00039096      -2.71489055       0.00000000
