10
Lattice="16.28999089631971 0.0 0.0 0.0 16.28999089631971 0.0 0.0 0.0 34.281931910070035" Properties=species:S:1:pos:R:3:initial_magmoms:R:1 pbc="T T T"
Si       1.29119427       1.45906272      -1.38303675       0.00000000
Si      -2.29451166       0.50054283      -0.47439364       0.00000000
Si       1.52019909      -1.88825535      -0.08759038       0.00000000
Si       0.26425638      -0.81578691       2.41821455       0.00000000
Si       3.33123984      -0.34606476       0.28539724       0.00000000
Si      -2.89610136      -1.79722683      -0.26671358       0.00000000
Si       2.45159613       0.18083529       2.52836246       0.00000000
Si       1.24097220       0.41886477      -3.41506512       0.00000000
Si      -1.46882043      -2.93935131      -1.92548006       0.00000000
Si       0.36473310       3.56329089      -1.33456207       0.00000000
