10
Lattice="16.28999089631971 0.0 0.0 0.0 16.28999089631971 0.0 0.0 0.0 34.281931910070035" Properties=species:S:1:pos:R:3:initial_magmoms:R:1 pbc="T T T"
Si       1.26570042      -1.42169346       1.40321168       0.00000000
Si       1.37554389       1.08444159      -1.60619995       0.00000000
Si      -1.44373383       1.29248118       1.39845335       0.00000000
Si      -1.28541132      -1.29974652      -1.54973758       0.00000000
Si       0.54542178      -1.98751032      -2.98430010       0.00000000
Si      -0.52344657       1.90790109      -3.04491059       0.00000000
Si      -2.57158827      -2.66849748      -0.08737784       0.00000000
Si       2.55384846       2.69477325      -0.17871524       0.00000000
Si       2.63182869      -0.06216264       2.76349550       0.00000000
Si      -0.08659764       2.65641030       2.76685513       0.00000000
