10
Lattice="16.28999089631971 0.0 0.0 0.0 16.28999089631971 0.0 0.0 0.0 34.281931910070035" Properties=species:S:1:pos:R:3:initial_magmoms:R:1 pbc="T T T"
Si      -1.35444834       1.35643572      -1.35910795       0.00000000
Si       1.35944937      -1.35852084      -1.35934792       0.00000000
Si      -1.34400645      -1.34675946       1.38793907       0.00000000
Si       1.34860023       1.35689184       1.39380128       0.00000000
Si       0.21207951      -2.54459574       2.82616976       0.00000000
Si      -2.71031391       2.71010320       0.00253686       0.00000000
Si      -2.71306692      -0.00156384      -2.71691319       0.00000000
Si       0.00162900       2.71298488      -2.71711888       0.00000000
Si       2.71624595       2.71417464       0.00366817       0.00000000
Si       0.00203625      -2.71637379      -2.71694747       0.00000000
