10
Lattice="16.28999089631971 0.0 0.0 0.0 16.28999089631971 0.0 0.0 0.0 34.281931910070035" Properties=species:S:1:pos:R:3:initial_magmoms:R:1 pbc="T T T"
Si      -0.55666188       1.76769306      -1.40826827       0.00000000
Si      -1.05645537      -2.05587945      -0.31436549       0.00000000
Si       2.05402306      -1.05322995      -0.37881556       0.00000000
Si      -0.38918439       0.84382200       2.15516914       0.00000000
Si       1.90866250       0.45528921       2.92966697       0.00000000
Si       0.65546140       1.20505275      -3.39871263       0.00000000
Si       2.85461792      -1.46225556       1.78108449       0.00000000
Si      -3.33275481      -1.62248400      -0.35142428       0.00000000
Si       0.30465558       3.84919668      -0.66332147       0.00000000
Si      -1.70347788      -0.48314511       3.55856937       0.00000000
