10
Lattice="16.28999089631971 0.0 0.0 0.0 16.28999089631971 0.0 0.0 0.0 34.281931910070035" Properties=species:S:1:pos:R:3:initial_magmoms:R:1 pbc="T T T"
Si       2.20060700       0.68065389      -0.45279601       0.00000000
Si      -0.29325258       0.30177944       2.31094632       0.00000000
Si      -0.86131746      -2.08150362      -0.74494680       0.00000000
Si      -1.00468575       1.51520036      -1.53507720       0.00000000
Si      -0.74213982       2.56907051       2.31194050       0.00000000
Si      -3.60965223       0.33072025      -0.60185393       0.00000000
Si       3.53376431      -0.43953678       1.28104795       0.00000000
Si       2.96042147      -0.47048778      -2.35691842       0.00000000
Si       0.35080582      -2.64414393      -2.73539116       0.00000000
Si      -1.97701956      -0.97086771       3.20793357       0.00000000
