10
Lattice="16.28999089631971 0.0 0.0 0.0 16.28999089631971 0.0 0.0 0.0 34.281931910070035" Properties=species:S:1:pos:R:3:initial_magmoms:R:1 pbc="T T T"
Si      -0.06349842       2.31353416      -0.22444393       0.00000000
Si      -0.36849609      -0.56708748      -2.22668129       0.00000000
Si      -1.53784116      -1.05075387       1.46548484       0.00000000
Si       2.28319011      -0.74966580       0.14823516       0.00000000
Si       0.36114930      -1.87421337       2.90419548       0.00000000
Si       0.55796508      -2.67131565      -2.27515596       0.00000000
Si       1.96626816       2.69932535       1.21436955       0.00000000
Si       3.30900792       1.40237582      -0.25567479       0.00000000
Si       0.97265961       0.96345576      -3.40423202       0.00000000
Si      -2.36944566       0.70205013       3.01262930       0.00000000
