10
Lattice="16.28999089631971 0.0 0.0 0.0 16.28999089631971 0.0 0.0 0.0 34.281931910070035" Properties=species:S:1:pos:R:3:initial_magmoms:R:1 pbc="T T T"
Si       0.98420922      -0.38092536       2.06055095       0.00000000
Si      -2.22527427      -0.58803642       0.43383809       0.00000000
Si       0.18955044       2.28014388      -0.58430157       0.00000000
Si       1.46574162      -1.49584554      -1.21491806       0.00000000
Si       3.15794682       0.25646976       1.36284468       0.00000000
Si      -1.85271057      -2.91053430       0.30668633       0.00000000
Si      -1.81962558       2.97662283      -1.56287987       0.00000000
Si      -3.48646888      -0.44992980      -1.55485789       0.00000000
Si       3.70691982      -0.83302173      -0.68097668       0.00000000
Si       1.72320507       2.58323562      -2.33130980       0.00000000
