10
Lattice="16.28999089631971 0.0 0.0 0.0 16.28999089631971 0.0 0.0 0.0 34.281931910070035" Properties=species:S:1:pos:R:3:initial_magmoms:R:1 pbc="T T T"
Si       1.22567752      -0.33104538       1.97518889       0.00000000
Si      -0.05054135       2.35309050      -0.24689861       0.00000000
Si      -2.25874438      -0.51025167       0.57518258       0.00000000
Si       1.01568802      -1.02149703      -1.98797606       0.00000000
Si      -3.26167081      -0.30299400      -1.50706885       0.00000000
Si       1.60885090      -2.65627998       1.92390309       0.00000000
Si      -2.34120436       2.87244828      -0.05646237       0.00000000
Si       3.40614289       0.36523809       1.46843309       0.00000000
Si      -0.35350978      -3.60238689       0.96510549       0.00000000
Si      -2.25690361      -2.51125011       1.83175321       0.00000000
