10
Lattice="16.28999089631971 0.0 0.0 0.0 16.28999089631971 0.0 0.0 0.0 34.281931910070035" Properties=species:S:1:pos:R:3:initial_magmoms:R:1 pbc="T T T"
Si       0.42925453      -0.40400829       2.33614356       0.00000000
Si       1.79359253       0.95998599      -1.32290621       0.00000000
Si      -0.90652677      -1.78193052      -1.39222431       0.00000000
Si      -1.61281656       1.86746931      -0.01227294       0.00000000
Si      -1.74289221      -1.18048743       2.74773266       0.00000000
Si       0.44011996       2.25474777      -2.79627590       0.00000000
Si      -2.30100390      -0.45690192      -2.78420866       0.00000000
Si       1.58969060      -2.47673160       2.46919181       0.00000000
Si      -3.44579994       1.07224038      -1.32849417       0.00000000
Si      -0.77713889       3.60637794       1.33037968       0.00000000
