10
Lattice="16.28999089631971 0.0 0.0 0.0 16.28999089631971 0.0 0.0 0.0 34.281931910070035" Properties=species:S:1:pos:R:3:initial_magmoms:R:1 pbc="T T T"
Si      -1.35738302       1.35674916      -1.36397599       0.00000000
Si       1.35945245      -1.35796698      -1.36308466       0.00000000
Si       1.34828891       1.38200843       1.36339319       0.00000000
Si      -1.36764572      -1.35728280       1.39013312       0.00000000
Si       0.13979653      -2.66633091       2.72688923       0.00000000
Si      -2.71003946       2.71292750      -0.00462806       0.00000000
Si       2.71297389       2.71206413      -0.00257115       0.00000000
Si      -2.71624595      -2.71417464      -0.00366817       0.00000000
Si       2.71359291      -2.71834488      -0.00610219       0.00000000
Si       0.00028318       2.71455650      -2.72064992       0.00000000
