10
Lattice="16.28999089631971 0.0 0.0 0.0 16.28999089631971 0.0 0.0 0.0 34.281931910070035" Properties=species:S:1:pos:R:3:initial_magmoms:R:1 pbc="T T T"
Si       1.35638848       1.35692798      -1.35735957       0.00000000
Si       1.35414046      -1.36037790       1.35698247       0.00000000
Si      -1.35890322      -1.35799956      -1.35756526       0.00000000
Si      -1.35945245       1.35796698       1.36308466       0.00000000
Si       2.71849312       0.00304623       2.70395461       0.00000000
Si       2.71425772      -2.71311579      -0.00054851       0.00000000
Si       2.71380160      -0.00021177      -2.71537050       0.00000000
Si       2.71455094       2.71551924      -0.00013713       0.00000000
Si      -0.00180330       2.71488067      -2.71543906       0.00000000
Si      -0.00161760      -2.71573848      -2.71506196       0.00000000
