10
Lattice="16.28999089631971 0.0 0.0 0.0 16.28999089631971 0.0 0.0 0.0 34.281931910070035" Properties=species:S:1:pos:R:3:initial_magmoms:R:1 pbc="T T T"
Si      -1.24195693       1.40993208       1.37216937       0.00000000
Si       1.33183945       1.35791811      -1.36082205       0.00000000
Si      -1.38139070      -1.35698958      -1.35749670       0.00000000
Si       1.35347257      -1.29476178       1.47336969       0.00000000
Si      -2.05293652      -0.38727846       2.78400296       0.00000000
Si      -0.44011996      -2.25474777       2.79627590       0.00000000
Si       2.59301125       0.36782820       2.74629282       0.00000000
Si       2.69231509      -2.70259245       0.02032920       0.00000000
Si       2.69195671       0.00518022      -2.71835303       0.00000000
Si       2.69619211       2.72134224      -0.01384991       0.00000000
