10
Lattice="16.28999089631971 0.0 0.0 0.0 16.28999089631971 0.0 0.0 0.0 34.281931910070035" Properties=species:S:1:pos:R:3:initial_magmoms:R:1 pbc="T T T"
Si      -1.42948008       0.84315411       1.70024765       0.00000000
Si       1.55347956       1.30882005      -1.28406476       0.00000000
Si       1.91694204       0.08009793       1.47624938       0.00000000
Si      -1.23953868      -1.66258998      -1.27292313       0.00000000
Si       0.10318086       2.35351404      -2.76014273       0.00000000
Si      -0.57052467      -0.11828169       3.63861772       0.00000000
Si      -2.59301125      -0.36782820      -2.74629282       0.00000000
Si      -1.20065445       3.15745812       1.75883550       0.00000000
Si       2.80973178      -0.34443576      -2.71050246       0.00000000
Si      -3.03313121      -2.62257597       0.04998308       0.00000000
