10
Lattice="16.28999089631971 0.0 0.0 0.0 16.28999089631971 0.0 0.0 0.0 34.281931910070035" Properties=species:S:1:pos:R:3:initial_magmoms:R:1 pbc="T T T"
Si       1.46351641      -1.26110615       1.28036231       0.00000000
Si       1.36468498       1.33005569      -1.36596434       0.00000000
Si      -1.34828891      -1.38200843      -1.36339319       0.00000000
Si      -1.39277938       1.35149333       1.54224213       0.00000000
Si      -0.32184316      -2.13173939       2.73261432       0.00000000
Si      -2.12716516      -0.49203619       2.89219680       0.00000000
Si       2.46893521       0.31650818       2.74005350       0.00000000
Si      -2.70045913       2.65909163      -0.00294825       0.00000000
Si       0.01178744       2.68976570      -2.72634072       0.00000000
Si       2.73302869       2.69444093       0.01868366       0.00000000
