10
Lattice="16.28999089631971 0.0 0.0 0.0 16.28999089631971 0.0 0.0 0.0 34.281931910070035" Properties=species:S:1:pos:R:3:initial_magmoms:R:1 pbc="T T T"
Si      -2.09750922      -1.00949130       0.31265139       0.00000000
Si      -0.38015226       2.31027128       0.23863666       0.00000000
Si       1.01301483       0.23013113      -2.13514848       0.00000000
Si       1.33155437      -0.59570901       1.93761587       0.00000000
Si      -2.21269581      -0.03158631       2.55719358       0.00000000
Si      -0.08946582       0.66673245       3.36072823       0.00000000
Si       1.66599296       3.14529668      -0.47833606       0.00000000
Si      -1.52915112      -3.36411306       0.13853336       0.00000000
Si       3.53803976      -0.12416238       1.14172610       0.00000000
Si      -0.69270849       0.28094453      -3.71959169       0.00000000
