10
Lattice="10.86 0.0 0.0 0.0 10.86 0.0 0.0 0.0 10.86" Properties=species:S:1:pos:R:3:initial_magmoms:R:1 pbc="T T T"
Si      -1.18257798       1.16001090      -1.36484136       0.00000000
Si      -1.18257798      -1.55498910       1.35015864       0.00000000
Si       1.53242202      -1.55498910      -1.36484136       0.00000000
Si       2.12130552       1.33446594       0.68906700       0.00000000
Si       0.20732826       2.21759028       2.34958272       0.00000000
Si      -2.54007798       2.51751090      -0.00734136       0.00000000
Si       0.34673808       2.70062136      -2.51013696       0.00000000
Si      -2.54007798      -0.19748910       2.70765864       0.00000000
Si      -2.54007798      -0.19748910      -2.72234136       0.00000000
Si       2.68959846       0.02094894       2.60004690       0.00000000
