10
Lattice="10.86 0.0 0.0 0.0 10.86 0.0 0.0 0.0 10.86" Properties=species:S:1:pos:R:3:initial_magmoms:R:1 pbc="T T T"
Si       1.46197320      -1.19684802       1.34197020       0.00000000
Si       1.35750000       1.35750000      -1.35750000       0.00000000
Si      -1.35750000       1.35750000       1.35750000       0.00000000
Si      -1.42896966      -1.34312136      -1.38066438       0.00000000
Si       0.24835734      -3.02816982      -2.07818046       0.00000000
Si       2.71500000       0.00000000      -2.71500000       0.00000000
Si      -2.71500000       0.00000000      -2.71500000       0.00000000
Si       2.71500000       2.71500000       0.00000000       0.00000000
Si      -2.71500000       0.00000000       2.71500000       0.00000000
Si       0.00000000      -2.71500000       2.71500000       0.00000000
