10
Lattice="10.86 0.0 0.0 0.0 10.86 0.0 0.0 0.0 10.86" Properties=species:S:1:pos:R:3:initial_magmoms:R:1 pbc="T T T"
Si      -1.42172604      -1.27085892       1.24415418       0.00000000
Si       1.29327396       1.44414108       1.24415418       0.00000000
Si       1.29327396      -1.27085892      -1.47084582       0.00000000
Si      -0.06422604      -2.62835892       2.60165418       0.00000000
Si       2.65077396       0.08664108       2.60165418       0.00000000
Si       2.65077396      -2.62835892      -0.11334582       0.00000000
Si       0.05840508      -2.90118384      -2.46455754       0.00000000
Si      -2.77922604       0.08664108       2.60165418       0.00000000
Si      -0.04056210       2.59651740      -2.79068334       0.00000000
Si      -0.06422604       2.80164108       2.60165418       0.00000000
