10
Lattice="10.86 0.0 0.0 0.0 10.86 0.0 0.0 0.0 10.86" Properties=species:S:1:pos:R:3:initial_magmoms:R:1 pbc="T T T"
Si      -1.35750000      -1.35750000       1.35750000       0.00000000
Si       1.35750000      -1.35750000      -1.35750000       0.00000000
Si       1.35750000       1.35750000       1.35750000       0.00000000
Si      -1.35750000       1.35750000      -1.35750000       0.00000000
Si       2.66249190      -2.65752888       0.02280600       0.00000000
Si      -0.01915704       2.62639326      -2.69912268       0.00000000
Si      -2.58440850      -2.74288848      -0.02774730       0.00000000
Si       0.08726010       2.67062604       2.74144410       0.00000000
Si      -0.02214354      -2.73725214      -2.68932696       0.00000000
Si      -2.71500000       0.00000000      -2.71500000       0.00000000
