10
Lattice="10.86 0.0 0.0 0.0 10.86 0.0 0.0 0.0 10.86" Properties=species:S:1:pos:R:3:initial_magmoms:R:1 pbc="T T T"
Si      -1.34048238      -1.48363890       1.20675234       0.00000000
Si       1.37964354       1.37975214       1.33182696       0.00000000
Si       1.37964354      -1.33524786      -1.38317304       0.00000000
Si      -1.33535646       1.37975214      -1.38317304       0.00000000
Si      -2.56226496      -0.00563634       2.66157966       0.00000000
Si       2.68463544       0.07972326       2.71213296       0.00000000
Si      -2.77855272      -2.63379978      -0.08907372       0.00000000
Si       0.02214354       2.73725214       2.68932696       0.00000000
Si      -2.69285646       2.73725214      -0.02567304       0.00000000
Si       0.02214354      -2.69274786      -2.74067304       0.00000000
