10
Lattice="10.86 0.0 0.0 0.0 10.86 0.0 0.0 0.0 10.86" Properties=species:S:1:pos:R:3:initial_magmoms:R:1 pbc="T T T"
Si       1.16578842      -1.31690532      -1.22804880       0.00000000
Si       1.27050054       0.70278318       1.63252950       0.00000000
Si      -1.54921158       1.39809468      -1.22804880       0.00000000
Si      -1.54921158      -1.31690532       1.48695120       0.00000000
Si       2.45438172       2.18978868       0.16290000       0.00000000
Si       2.42643894      -2.46807618       0.20173536       0.00000000
Si       2.52328842       0.04059468      -2.58554880       0.00000000
Si      -0.19171158      -2.67440532      -2.58554880       0.00000000
Si      -0.19171158       2.75559468      -2.58554880       0.00000000
Si      -0.38877714      -2.51503482       2.81254452       0.00000000
