10
Lattice="10.86 0.0 0.0 0.0 10.86 0.0 0.0 0.0 10.86" Properties=species:S:1:pos:R:3:initial_magmoms:R:1 pbc="T T T"
Si       1.35750000       1.35750000       1.35750000       0.00000000
Si      -1.35750000      -1.35750000       1.35750000       0.00000000
Si      -1.35750000       1.35750000      -1.35750000       0.00000000
Si       1.35750000      -1.35750000      -1.35750000       0.00000000
Si      -0.06890670       2.14919400       2.74844880       0.00000000
Si      -2.52328842      -0.04059468       2.58554880       0.00000000
Si      -0.01494336      -2.32930710      -2.76581394       0.00000000
Si      -0.09684948      -2.50867086       2.78728416       0.00000000
Si       2.62230990      -0.13345854       2.71169856       0.00000000
Si       2.44886484       0.02277342      -2.89112748       0.00000000
