10
Lattice="16.290000149 0.0 0.0 0.0 16.290000149 0.0 0.0 0.0 29.1751946751" Properties=species:S:1:pos:R:3:initial_magmoms:R:1 pbc="T T T"
Si      -1.34627892      -1.32885676       1.38112454       0.00000000
Si       1.36220239       1.36782244       1.36332767       0.00000000
Si      -1.38536026       1.33980364      -1.37190226       0.00000000
Si       1.38412873      -1.37117818      -1.35167802       0.00000000
Si       2.68434767       0.11258019      -2.62588276       0.00000000
Si      -2.67731039      -2.68921838       0.00268120       0.00000000
Si      -2.60499729      -0.15051960      -2.76954288       0.00000000
Si      -0.04004082       2.80166826      -2.60591380       0.00000000
Si      -2.70063767       0.05952366       2.71148424       0.00000000
Si       0.02280600      -2.67796199       2.74436469       0.00000000
