10
Lattice="16.290000149 0.0 0.0 0.0 16.290000149 0.0 0.0 0.0 29.1751946751" Properties=species:S:1:pos:R:3:initial_magmoms:R:1 pbc="T T T"
Si       1.61301952      -0.17168031      -1.67818637       0.00000000
Si      -0.43631136       2.28899914      -0.30453068       0.00000000
Si       0.24838992      -0.51447078       2.29761981       0.00000000
Si      -1.89829001      -1.30010491      -0.63103029       0.00000000
H        1.33040431      -2.22501854       1.51276302       0.00000000
H       -2.78042610      -0.44844741      -1.52099042       0.00000000
Si      -1.49786551       1.02794788       2.74821873       0.00000000
Si       0.04862565      -0.94837123      -3.26811778       0.00000000
Si      -2.33152256       2.27227746       1.03463993       0.00000000
Si      -0.86415193      -2.78599728      -2.10169350       0.00000000
