10
Lattice="16.290000149 0.0 0.0 0.0 16.290000149 0.0 0.0 0.0 29.1751946751" Properties=species:S:1:pos:R:3:initial_magmoms:R:1 pbc="T T T"
Si       1.19485522      -1.56348163       1.23101816       0.00000000
Si      -1.38476404      -1.35237952      -1.29403658       0.00000000
Si      -1.05487525       1.46298862       1.48460896       0.00000000
Si       1.38644191       1.31919679      -1.35002378       0.00000000
Si       0.74925856       2.21519567       2.87816213       0.00000000
Si      -2.36877779       0.10414197       2.86760071       0.00000000
Si      -0.01255959       2.59918355      -2.71343898       0.00000000
Si      -0.02324583      -2.70195716      -2.62620515       0.00000000
Si      -2.49665429       2.81826777       0.19909153       0.00000000
Si      -2.73771372       0.00586440      -2.59708830       0.00000000
