10
Lattice="16.290000149 0.0 0.0 0.0 16.290000149 0.0 0.0 0.0 29.1751946751" Properties=species:S:1:pos:R:3:initial_magmoms:R:1 pbc="T T T"
Si      -0.69165712       2.04756505       0.76698669       0.00000000
Si       2.05680800      -0.60998068       0.89118550       0.00000000
Si      -1.24382296      -1.78545569       0.84240457       0.00000000
Si      -0.63672724      -0.67497127      -2.14723598       0.00000000
Si      -0.68176909      -2.82063633      -1.16700779       0.00000000
H        0.68677012       2.29707898      -2.15280844       0.00000000
Si      -1.30256470       1.53524455       2.94958301       0.00000000
Si      -3.53554905       0.78145737      -0.77346359       0.00000000
Si       1.53438769      -1.86415268       2.82319606       0.00000000
Si       1.06481215       3.54002229       0.42972144       0.00000000
