10
Lattice="16.290000149 0.0 0.0 0.0 16.290000149 0.0 0.0 0.0 29.1751946751" Properties=species:S:1:pos:R:3:initial_magmoms:R:1 pbc="T T T"
Si      -1.39932730       1.42423471      -1.22457045       0.00000000
Si      -1.32638068      -1.38204361       1.37654112       0.00000000
Si       1.19817838      -1.47273004      -1.43060567       0.00000000
Si       1.30839652       1.44668233       1.37047268       0.00000000
H        3.22478472       1.73421713      -0.50449747       0.00000000
Si      -0.00390960       2.65913075      -2.64829077       0.00000000
Si       2.67051746      -2.68170869       0.02509067       0.00000000
Si       2.53149860      -0.13681971      -2.82144555       0.00000000
Si      -2.90177031       0.13623327      -2.51005870       0.00000000
Si       2.73590553       0.07985358       2.70500735       0.00000000
