10
Lattice="16.290000149 0.0 0.0 0.0 16.290000149 0.0 0.0 0.0 29.1751946751" Properties=species:S:1:pos:R:3:initial_magmoms:R:1 pbc="T T T"
Si       1.03850380       1.10065015      -0.19786617       0.00000000
H       -0.51781023       1.52704090       1.83366099       0.00000000
Si      -2.18382113      -0.79293205      -1.20989532       0.00000000
Si      -0.97489135       0.24061959       2.49252441       0.00000000
Si       1.03035880      -1.12555756       2.40473625       0.00000000
Si      -0.50813397      -2.49132746      -1.36656612       0.00000000
Si      -0.18544536      -2.71722089       0.99458239       0.00000000
Si       2.19775234       0.92675440       1.82024040       0.00000000
Si       2.52684781       0.02547756      -1.62336618       0.00000000
Si      -0.20232180       2.76996792      -1.33954989       0.00000000
