10
Lattice="16.290000149 0.0 0.0 0.0 16.290000149 0.0 0.0 0.0 29.1751946751" Properties=species:S:1:pos:R:3:initial_magmoms:R:1 pbc="T T T"
Si       1.31217580       1.36000324       1.34531782       0.00000000
Si      -1.37500633       1.26438094      -1.41732220       0.00000000
Si       1.28717065      -1.44910954      -1.32804611       0.00000000
Si      -1.42731352      -1.39069360       1.28121992       0.00000000
Si      -2.18457047      -0.59487823      -2.59889542       0.00000000
Si      -0.55161199      -2.33044742      -2.51473548       0.00000000
Si       2.62109360       2.64958481      -0.12516159       0.00000000
Si       2.62914086      -0.03148857       2.68702668       0.00000000
Si      -0.10674837       2.69065190       2.64737759       0.00000000
Si       2.53676027      -2.81942436       0.08515072       0.00000000
