10
Lattice="16.290000149 0.0 0.0 0.0 16.290000149 0.0 0.0 0.0 29.1751946751" Properties=species:S:1:pos:R:3:initial_magmoms:R:1 pbc="T T T"
Si      -1.37194381      -1.40623426      -1.31232068       0.00000000
Si      -1.34631964       1.27927000       1.46056860       0.00000000
Si       1.33951042      -1.33644790       1.42185311       0.00000000
Si       1.34143264       1.41807709      -1.36020593       0.00000000
Si       2.67164147      -0.02228472      -2.67443466       0.00000000
Si       0.05968656      -2.77793373      -2.59684615       0.00000000
Si      -2.68086161      -2.69581583       0.15815873       0.00000000
Si      -2.77962789       2.59900436       0.17779364       0.00000000
Si      -2.72085356      -0.04382010      -2.68867216       0.00000000
Si       2.68820840       2.75089233       0.02865004       0.00000000
