10
Lattice="16.290000149 0.0 0.0 0.0 16.290000149 0.0 0.0 0.0 29.1751946751" Properties=species:S:1:pos:R:3:initial_magmoms:R:1 pbc="T T T"
Si      -0.90730414       0.89819803      -0.80870722       0.00000000
Si       0.89935462      -1.57310902       1.49420760       0.00000000
H       -2.01497528      -0.34547832       1.41347983       0.00000000
Si       1.91508500       0.57264238       1.89344096       0.00000000
Si       1.87799267      -1.97194199      -0.65699621       0.00000000
Si      -1.40532202      -1.65206014       1.85542568       0.00000000
Si      -2.21944736      -0.57003598      -2.08798116       0.00000000
Si       0.43541541       2.20806065      -2.20360245       0.00000000
Si      -2.05177439       2.32608170       0.65378694       0.00000000
Si       3.01503468       1.99695854       0.32145229       0.00000000
