10
Lattice="16.290000149 0.0 0.0 0.0 16.290000149 0.0 0.0 0.0 29.1751946751" Properties=species:S:1:pos:R:3:initial_magmoms:R:1 pbc="T T T"
Si      -1.37334638       1.34208424      -1.35437089       0.00000000
Si      -1.33055581      -1.39681864       1.34369277       0.00000000
Si       1.29862252      -1.35785296      -1.41741848       0.00000000
Si       1.35643573       1.38212506       1.35133667       0.00000000
Si      -2.72193133      -0.06540435       2.65835621       0.00000000
Si       2.77522959       0.00912240       2.60496561       0.00000000
Si       2.60713307      -2.78557374      -0.11885974       0.00000000
Si      -0.01267362       2.69219945      -2.70801239       0.00000000
Si      -2.71357470       2.70485678       0.01814697       0.00000000
Si       0.03932406      -2.63518445       2.78906109       0.00000000
