10
Lattice="16.290000149 0.0 0.0 0.0 16.290000149 0.0 0.0 0.0 29.1751946751" Properties=species:S:1:pos:R:3:initial_magmoms:R:1 pbc="T T T"
Si       1.41892417      -1.33064866      -1.30205976       0.00000000
Si       1.37334475       1.32657616       1.36356107       0.00000000
Si      -1.35166276      -1.37569051       1.34637688       0.00000000
Si      -1.35163018       1.31890357      -1.40770314       0.00000000
Si       0.10674837      -2.69065190      -2.64737759       0.00000000
Si       0.00403992       2.70602966       2.68534327       0.00000000
Si       2.75346615       2.64443717       0.00035010       0.00000000
Si      -2.72362286      -0.01267362       2.68070441       0.00000000
Si      -2.71446788       2.69257412      -0.05814616       0.00000000
Si       0.01555695       2.66911652      -2.75821707       0.00000000
