10
Lattice="16.290000149 0.0 0.0 0.0 16.290000149 0.0 0.0 0.0 29.1751946751" Properties=species:S:1:pos:R:3:initial_magmoms:R:1 pbc="T T T"
Si       1.34627892       1.32885676      -1.38112454       0.00000000
Si      -1.33103148      -1.36036162      -1.37844334       0.00000000
Si      -1.35435876       1.38838042       1.33035970       0.00000000
Si       1.36908492      -1.34910523       1.36324015       0.00000000
Si      -2.62623310      -2.67473657       0.09099743       0.00000000
Si       2.70848131       2.69667920      -0.01779687       0.00000000
Si      -2.69499319       0.03515382       2.71583135       0.00000000
Si      -0.03908134       2.66866040      -2.75302680       0.00000000
Si       0.00991409       2.71827974       2.70952950       0.00000000
Si       2.72848543       0.00578295       2.71621062       0.00000000
