10
Lattice="16.290000149 0.0 0.0 0.0 16.290000149 0.0 0.0 0.0 29.1751946751" Properties=species:S:1:pos:R:3:initial_magmoms:R:1 pbc="T T T"
Si       0.65415754      -0.42311646       2.13106125       0.00000000
Si      -1.07059510      -1.75902680      -1.06603244       0.00000000
Si      -1.70188148       1.59726709      -0.01595883       0.00000000
Si       1.78927733       0.58600018      -1.43906648       0.00000000
Si      -0.31107384       3.03397995      -1.19306124       0.00000000
H        3.08724825       1.13741668      -0.52179836       0.00000000
H       -0.55833976      -3.04121271       1.33050558       0.00000000
Si      -1.99870157      -0.71495182      -2.89975177       0.00000000
Si       0.76519018       1.92156842      -3.04982898       0.00000000
Si      -1.25366212      -1.21334437       3.25249738       0.00000000
