10
Lattice="16.290000149 0.0 0.0 0.0 16.290000149 0.0 0.0 0.0 29.1751946751" Properties=species:S:1:pos:R:3:initial_magmoms:R:1 pbc="T T T"
Si      -2.19473543       0.73042732       0.46076385       0.00000000
Si      -0.26350704      -2.03980124       1.19889627       0.00000000
Si       1.57639960       1.31963662       1.20146369       0.00000000
Si      -0.28733931       0.88982497      -2.24406845       0.00000000
H        2.24881823      -0.94069864      -1.63605739       0.00000000
H        0.86121973      -1.85057660      -2.23073538       0.00000000
H        1.63665631      -2.59830389      -0.52430742       0.00000000
H        1.04042602      -2.47536326       1.83797891       0.00000000
Si      -2.14969358       2.87609238      -0.51946434       0.00000000
Si      -2.41308659      -0.07628607      -2.92703058       0.00000000
