10
Lattice="16.290000149 0.0 0.0 0.0 16.290000149 0.0 0.0 0.0 29.1751946751" Properties=species:S:1:pos:R:3:initial_magmoms:R:1 pbc="T T T"
Si       1.34298019       1.37697742      -1.31434252       0.00000000
Si      -1.36260964       1.37152027       1.34313844       0.00000000
Si       1.54513909      -1.32325300       1.18605919       0.00000000
Si      -1.40851486      -1.32470281      -1.35673408       0.00000000
Si       2.57297294       2.80645589       0.11381243       0.00000000
Si       2.62770734      -2.74538631      -0.31100758       0.00000000
Si      -0.05768289       2.71924574      -2.67335226       0.00000000
Si       2.64715760       0.03181437      -2.74535664       0.00000000
Si      -2.70612740       0.08661393       2.71869052       0.00000000
Si      -2.78387958      -2.64473039       0.00641854       0.00000000
