10
Lattice="16.290000149 0.0 0.0 0.0 16.290000149 0.0 0.0 0.0 29.1751946751" Properties=species:S:1:pos:R:3:initial_magmoms:R:1 pbc="T T T"
Si      -0.92810647       1.04407498      -1.83371934       0.00000000
Si       1.07059510       1.75902680       1.06603244       0.00000000
Si       1.33362973      -1.54579069      -1.15775925       0.00000000
Si      -1.93881953      -1.02798046       0.90203867       0.00000000
H        0.51225534      -1.28218591       2.39653802       0.00000000
Si       0.69118471      -2.66965247       1.78590119       0.00000000
Si      -1.69854203      -1.00292644      -2.71148424       0.00000000
Si      -0.47646621      -2.87329050      -1.76110228       0.00000000
Si      -2.22475790       2.54293418      -0.51240394       0.00000000
Si      -1.20925558      -3.21814329       0.50026706       0.00000000
