10
Lattice="16.290000149 0.0 0.0 0.0 16.290000149 0.0 0.0 0.0 29.1751946751" Properties=species:S:1:pos:R:3:initial_magmoms:R:1 pbc="T T T"
Si       0.90705979       0.07371225      -1.21745170       0.00000000
H       -1.27120645      -1.75870100      -0.42837938       0.00000000
H        1.89868097       0.42622785       1.23974155       0.00000000
Si      -1.80579539      -2.01626219       0.95785082       0.00000000
Si       1.17993358       2.94331469       0.24836843       0.00000000
Si       0.01659951       1.49297851      -2.80919197       0.00000000
Si       1.23787711      -2.04959153      -2.14825711       0.00000000
Si       2.79481017       1.41428152      -0.82840048       0.00000000
Si      -2.65746917      -0.14167413       2.07260583       0.00000000
H       -2.87321394      -0.91212598      -1.59503707       0.00000000
