10
Lattice="16.290000149 0.0 0.0 0.0 16.290000149 0.0 0.0 0.0 29.1751946751" Properties=species:S:1:pos:R:3:initial_magmoms:R:1 pbc="T T T"
H        1.29797092       0.55141651       0.91726812       0.00000000
Si       1.22521978      -1.85091869      -0.66962907       0.00000000
Si      -1.02408715       1.33556824      -1.61076250       0.00000000
Si      -1.78927733      -0.58600018       1.43906648       0.00000000
H        0.95581576       1.26957745      -2.71116332       0.00000000
Si      -2.10035117       2.44797977       0.24600524       0.00000000
Si      -1.79986583      -0.69761926      -2.63527863       0.00000000
Si       2.47818143       1.09105534       1.96964657       0.00000000
Si      -0.31076433      -2.56631033      -2.28158775       0.00000000
Si      -2.85987243      -2.34502697       0.37303404       0.00000000
