10
Lattice="16.290000149 0.0 0.0 0.0 16.290000149 0.0 0.0 0.0 29.1751946751" Properties=species:S:1:pos:R:3:initial_magmoms:R:1 pbc="T T T"
Si       1.44536284      -1.19337283      -1.35739052       0.00000000
Si      -1.34531944      -1.46186461       1.23401154       0.00000000
Si      -1.35735612       1.24251976      -1.45658618       0.00000000
Si       1.42649902       1.35948196       1.27948692       0.00000000
Si      -2.70583418      -0.00356751       2.52101982       0.00000000
Si       0.08710263      -2.53868249      -2.69877845       0.00000000
Si       0.09673002       2.67384062       2.69917523       0.00000000
Si      -2.52868223       2.83384378      -0.17022267       0.00000000
Si       2.75540466      -0.03621267       2.64871965       0.00000000
Si       0.04004082      -2.80166826       2.60591380       0.00000000
