10
Lattice="16.290000149 0.0 0.0 0.0 16.290000149 0.0 0.0 0.0 29.1751946751" Properties=species:S:1:pos:R:3:initial_magmoms:R:1 pbc="T T T"
Si       0.81389728      -0.98766271      -1.93956694       0.00000000
Si      -1.33332022      -1.33591033       1.39083988       0.00000000
Si       1.59316201       1.12806622       1.33873298       0.00000000
Si      -1.50127012       1.31005810      -1.29750843       0.00000000
H        1.27097839       0.29875860      -2.59843036       0.00000000
H        0.69328612       1.87103684       2.31694809       0.00000000
Si      -2.53540820       2.79595047       0.17315478       0.00000000
Si      -1.06447006      -1.69562612      -3.21560243       0.00000000
Si      -2.53149860       0.13681971       2.82144555       0.00000000
Si      -2.90030421      -2.45900810      -0.07410499       0.00000000
