10
Lattice="16.290000149 0.0 0.0 0.0 16.290000149 0.0 0.0 0.0 29.1751946751" Properties=species:S:1:pos:R:3:initial_magmoms:R:1 pbc="T T T"
Si      -2.06855309       0.72368651      -0.84488446       0.00000000
Si      -0.78304402      -1.49794371       1.70855775       0.00000000
Si       1.04910859      -0.67352309      -2.06933821       0.00000000
Si       0.92144386       2.08044805       0.81486319       0.00000000
H       -1.38914605       2.28187390       1.73239388       0.00000000
Si      -1.31564557       1.30931854      -2.99874321       0.00000000
Si      -2.66997989       2.24325031       0.91181236       0.00000000
H        0.39094371      -3.58374790      -0.52993824       0.00000000
Si      -2.32543010      -2.80920727       0.51899754       0.00000000
Si      -3.35429022      -1.26216224      -0.96114761       0.00000000
