10
Lattice="16.290000149 0.0 0.0 0.0 16.290000149 0.0 0.0 0.0 29.1751946751" Properties=species:S:1:pos:R:3:initial_magmoms:R:1 pbc="T T T"
Si       1.35316144       1.39763314      -1.32052183       0.00000000
Si      -1.35180937       1.36925596       1.35880552       0.00000000
Si       1.37642356      -1.34726446       1.35924314       0.00000000
Si      -1.36220239      -1.36782244      -1.36332767       0.00000000
Si       2.73492812       0.04103451      -2.64518653       0.00000000
Si      -2.70848131      -2.69667920       0.01779687       0.00000000
Si       2.69021207       2.72248256       0.08440384       0.00000000
Si       0.02000412      -2.69089625       2.73400749       0.00000000
Si      -2.69856722       0.02160054       2.72732637       0.00000000
Si      -2.71743429       2.71720460      -0.01336224       0.00000000
