10
Lattice="16.290000149 0.0 0.0 0.0 16.290000149 0.0 0.0 0.0 29.1751946751" Properties=species:S:1:pos:R:3:initial_magmoms:R:1 pbc="T T T"
Si       1.34816041      -1.34736220      -1.36536994       0.00000000
Si      -1.35509995      -1.37984446       1.33619474       0.00000000
Si      -1.35589816       1.33103962      -1.38640525       0.00000000
Si       1.36653553       1.34034121       1.37079652       0.00000000
Si      -2.74105317      -0.02477709       2.64767809       0.00000000
Si      -0.01759320       2.68325624       2.70655363       0.00000000
Si       2.68495040      -2.72214047      -0.01199100       0.00000000
Si      -0.01122381      -2.71218728      -2.69602139       0.00000000
Si      -2.73505844       2.67877649      -0.06590676       0.00000000
Si       2.71098182       2.71267598       0.01012379       0.00000000
