10
Lattice="16.290000149 0.0 0.0 0.0 16.290000149 0.0 0.0 0.0 29.1751946751" Properties=species:S:1:pos:R:3:initial_magmoms:R:1 pbc="T T T"
Si       1.23779566      -1.39703041       1.36732467       0.00000000
Si      -1.36151821       1.34957764       1.33216856       0.00000000
Si      -1.29189475      -1.43641963      -1.31335056       0.00000000
Si       1.45730341       1.29795463      -1.30229316       0.00000000
Si       2.67615380      -0.06861348       2.57952484       0.00000000
Si      -2.64644084      -0.06876009      -2.64907850       0.00000000
Si       0.09542682       2.62470998      -2.68289255       0.00000000
Si       0.02324583       2.70195716       2.62620515       0.00000000
Si      -2.59828760      -2.78330780       0.11074904       0.00000000
Si       0.13502781      -2.79790038      -2.61077147       0.00000000
