10
Lattice="16.290000149 0.0 0.0 0.0 16.290000149 0.0 0.0 0.0 29.1751946751" Properties=species:S:1:pos:R:3:initial_magmoms:R:1 pbc="T T T"
Si      -1.28961415      -1.44097660       1.28038259       0.00000000
Si       1.30230406      -1.41323473      -1.33981246       0.00000000
Si      -1.43597980       1.62802685      -0.92479532       0.00000000
Si       1.18897453       1.14900311       1.69312407       0.00000000
Si      -0.80796772       2.03247497       2.66909268       0.00000000
Si      -2.32217210       0.18046974       2.59787603       0.00000000
Si      -0.08518041       2.64576090      -2.55787684       0.00000000
Si       2.62615230       2.57041965       0.34505503       0.00000000
Si       0.23745933      -2.41865354       2.79693839       0.00000000
Si       1.76590118      -0.58409001       3.21533985       0.00000000
