10
Lattice="16.290000149 0.0 0.0 0.0 16.290000149 0.0 0.0 0.0 29.1751946751" Properties=species:S:1:pos:R:3:initial_magmoms:R:1 pbc="T T T"
Si      -1.35555607      -1.37624437       1.36799570       0.00000000
Si       1.38391696      -1.35860230      -1.36090613       0.00000000
Si      -1.34118829       1.30784266      -1.45794283       0.00000000
Si       1.41204979       1.38743560       1.32577920       0.00000000
H       -0.49575357       0.31530924       2.41445159       0.00000000
Si      -2.69485472      -2.68214852      -0.07722674       0.00000000
H       -1.08848152       2.95591827       2.15873100       0.00000000
Si       2.71733492      -0.03481173       2.68951532       0.00000000
Si       2.74438999       2.70892928      -0.11661325       0.00000000
Si       0.12466737       2.48938895       2.94517755       0.00000000
