10
Lattice="16.290000149 0.0 0.0 0.0 16.290000149 0.0 0.0 0.0 29.1751946751" Properties=species:S:1:pos:R:3:initial_magmoms:R:1 pbc="T T T"
Si      -1.43397613       1.34648091      -1.26153542       0.00000000
Si      -1.37989333      -1.34306164       1.33540701       0.00000000
Si       1.34692237       1.38758384       1.33887886       0.00000000
Si       1.35422029      -1.32908482      -1.40084697       0.00000000
Si      -0.10036269       2.68670972      -2.59003082       0.00000000
Si      -0.01053963      -2.69120576       2.67612391       0.00000000
Si       2.70031187      -2.67429674      -0.03562291       0.00000000
Si       2.70671384       0.03324789       2.69012800       0.00000000
Si      -2.73041579       0.03305241       2.68475976       0.00000000
Si      -0.06796188      -2.78881545      -2.62578794       0.00000000
