10
Lattice="16.290000149 0.0 0.0 0.0 16.290000149 0.0 0.0 0.0 29.1751946751" Properties=species:S:1:pos:R:3:initial_magmoms:R:1 pbc="T T T"
Si       1.37411038      -1.34781344       1.33564041       0.00000000
Si       1.36368478       1.34621050      -1.35218275       0.00000000
Si      -1.34990344      -1.36982123      -1.35121997       0.00000000
Si      -1.35040843       1.34945221       1.37301384       0.00000000
Si       0.01954800      -2.70198486       2.67017217       0.00000000
Si       0.00161271       2.71297409      -2.68703543       0.00000000
Si      -2.73232172      -0.01045818      -2.67349814       0.00000000
Si       2.72412785       2.68884860       0.00956946       0.00000000
Si      -2.71902908       2.69414285       0.00919019       0.00000000
Si       2.72743472      -0.01528979      -2.69710087       0.00000000
