10
Lattice="16.290000149 0.0 0.0 0.0 16.290000149 0.0 0.0 0.0 29.1751946751" Properties=species:S:1:pos:R:3:initial_magmoms:R:1 pbc="T T T"
Si      -0.56205388       1.03518064       2.00941236       0.00000000
Si      -1.62070840      -1.68832820      -0.06899934       0.00000000
Si       2.19473543      -0.73042732      -0.46076385       0.00000000
Si       0.04504185       2.14566506      -0.98022819       0.00000000
Si       0.68176909       2.82063633       1.16700779       0.00000000
Si       1.90739612       0.15939765      -2.70483230       0.00000000
Si      -3.44059464      -0.22921659       0.09729927       0.00000000
Si       1.93122839      -2.77022856       0.73813243       0.00000000
Si      -0.21835116      -0.80671339      -3.38779443       0.00000000
Si      -2.79370245       1.54030096       1.68416729       0.00000000
