10
Lattice="16.290000149 0.0 0.0 0.0 16.290000149 0.0 0.0 0.0 29.1751946751" Properties=species:S:1:pos:R:3:initial_magmoms:R:1 pbc="T T T"
Si       1.48765168      -1.26221437      -1.29456174       0.00000000
Si      -1.34094394       1.41327154      -1.38287505       0.00000000
Si      -1.39360951      -1.82448002       0.73693624       0.00000000
Si       1.11296539       1.67537765       1.36942529       0.00000000
H       -0.48114144       3.10482516      -0.33641917       0.00000000
H        2.97086923       0.05276331       1.63430688       0.00000000
Si      -2.49509045       2.49616559       0.37265476       0.00000000
Si       0.07030764      -2.53988795      -2.70462807       0.00000000
Si      -0.56272177       3.37377306       1.52609608       0.00000000
Si       2.78164035      -2.61522920       0.19830380       0.00000000
