10
Lattice="16.290000149 0.0 0.0 0.0 16.290000149 0.0 0.0 0.0 29.1751946751" Properties=species:S:1:pos:R:3:initial_magmoms:R:1 pbc="T T T"
Si      -1.36000324      -1.36155079       1.34357607       0.00000000
Si      -1.35979147       1.35433595      -1.35124914       0.00000000
Si       1.33317361       1.35299854       1.38194145       0.00000000
Si       1.35153244      -1.36018243      -1.35860129       0.00000000
Si       2.68408703       2.70811478       0.01193265       0.00000000
Si       0.02764413      -2.70273908       2.69079903       0.00000000
Si      -2.71311581       0.02181231       2.68149214       0.00000000
Si      -2.70671384      -0.03324789      -2.69012800       0.00000000
Si       2.66488112      -0.00941562       2.75781445       0.00000000
Si      -0.01000206       2.74268217      -2.68581007       0.00000000
