10
Lattice="16.290000149 0.0 0.0 0.0 16.290000149 0.0 0.0 0.0 29.1751946751" Properties=species:S:1:pos:R:3:initial_magmoms:R:1 pbc="T T T"
Si       1.83223406       1.02245815      -0.94207871       0.00000000
Si       1.40631571      -1.36371736       1.25441084       0.00000000
Si      -1.32033709       1.48904850       1.20860286       0.00000000
Si      -1.30427515      -1.18433188      -1.55334513       0.00000000
Si       0.99857701       2.26678773      -2.65565751       0.00000000
Si      -2.67027311       0.09420507       2.51940935       0.00000000
Si      -2.62555706      -2.58724298      -0.21018102       0.00000000
Si       0.05056416      -2.70394454       2.56996996       0.00000000
Si       2.74411569      -2.51804306      -0.30256427       0.00000000
Si       2.82849789       0.09601326       2.47935181       0.00000000
