10
Lattice="16.290000149 0.0 0.0 0.0 16.290000149 0.0 0.0 0.0 29.1751946751" Properties=species:S:1:pos:R:3:initial_magmoms:R:1 pbc="T T T"
Si      -1.33503507      -1.37683081      -1.34503482       0.00000000
Si       1.34318870      -1.35812989       1.36312345       0.00000000
Si       1.33031960       1.35767377      -1.38375031       0.00000000
Si      -1.38815562       1.36099693       1.32303673       0.00000000
Si      -2.66499841       0.03204243      -2.65599302       0.00000000
Si      -0.03582008       2.71340903       2.68414709       0.00000000
Si       2.68972012       2.71256195      -0.03077983       0.00000000
Si       2.69100703       0.00337203       2.71361403       0.00000000
Si       2.70227971      -2.71353935       0.00948194       0.00000000
Si      -2.72004232      -2.70861977       0.02249408       0.00000000
