10
Lattice="16.290000149 0.0 0.0 0.0 16.290000149 0.0 0.0 0.0 29.1751946751" Properties=species:S:1:pos:R:3:initial_magmoms:R:1 pbc="T T T"
Si       0.14832045      -0.79825888      -1.27472261       0.00000000
H       -1.39979971       2.03030417      -0.45551231       0.00000000
Si       0.92001034      -0.16114068       2.53777513       0.00000000
H       -1.29627676      -2.67222791       0.43135525       0.00000000
Si      -2.05925150      -0.71604325      -2.08547209       0.00000000
Si       1.01431315      -2.87365377      -0.48617544       0.00000000
Si      -0.79731406       1.47023767       2.64169718       0.00000000
Si       2.78866884       0.73381564       1.26112697       0.00000000
Si       0.87065164      -2.45563607       1.87164709       0.00000000
Si       1.22399803       0.36460278      -2.98085882       0.00000000
