10
Lattice="16.290000149 0.0 0.0 0.0 16.290000149 0.0 0.0 0.0 29.1751946751" Properties=species:S:1:pos:R:3:initial_magmoms:R:1 pbc="T T T"
Si       1.34609158      -1.34521192       1.36522406       0.00000000
Si      -1.35422029       1.32908482       1.40084697       0.00000000
Si      -1.42218217      -1.45973062      -1.22494097       0.00000000
Si       1.46033335       1.43708052      -1.21457502       0.00000000
Si      -0.99626383       0.92644489      -3.42143051       0.00000000
Si       0.04338027       2.78006283      -2.46913465       0.00000000
Si      -2.82849789      -0.09601326      -2.47935181       0.00000000
Si       2.68990256      -2.64806984      -0.05852544       0.00000000
Si      -0.08438220      -2.61405632      -2.78191608       0.00000000
Si      -0.00939933      -2.71538012       2.71183435       0.00000000
