10
Lattice="16.290000149 0.0 0.0 0.0 16.290000149 0.0 0.0 0.0 29.1751946751" Properties=species:S:1:pos:R:3:initial_magmoms:R:1 pbc="T T T"
Si       0.92810647      -1.04407498       1.83371934       0.00000000
Si      -0.77043556      -2.04700142      -0.87776491       0.00000000
Si      -1.29665143       1.49885920       1.32131539       0.00000000
Si       1.98811307       0.60333274      -1.17459334       0.00000000
H       -0.26006985       2.66849750      -1.43250206       0.00000000
Si      -0.15952797      -1.53468091      -3.06036122       0.00000000
Si       2.26173620      -2.58986567       0.67596009       0.00000000
Si      -1.01071306      -2.07205544       2.73575800       0.00000000
Si       1.99870157       0.71495182       2.89975177       0.00000000
Si       0.29682009       2.31221891       2.88379294       0.00000000
