10
Lattice="16.290000149 0.0 0.0 0.0 16.290000149 0.0 0.0 0.0 29.1751946751" Properties=species:S:1:pos:R:3:initial_magmoms:R:1 pbc="T T T"
H       -1.13150341       0.06359616       1.00266392       0.00000000
Si       0.21688506      -2.13824171      -0.90262217       0.00000000
Si       2.05980536       0.69353047       0.89979218       0.00000000
Si      -0.22012677       1.51259167      -1.83955437       0.00000000
H       -0.44927820       0.98442100       2.61966990       0.00000000
H       -2.05128569       1.83099602       1.45301222       0.00000000
Si       2.34688403      -1.55593936      -1.91540988       0.00000000
H        2.43429617      -2.36447723       0.76348567       0.00000000
Si       3.33181002       0.43069131      -1.03242261       0.00000000
Si       1.72898804       2.81683425       1.83059759       0.00000000
