10
Lattice="16.290000149 0.0 0.0 0.0 16.290000149 0.0 0.0 0.0 29.1751946751" Properties=species:S:1:pos:R:3:initial_magmoms:R:1 pbc="T T T"
Si       0.96979258      -1.45200916      -1.51506786       0.00000000
Si      -1.68875174       0.93206494      -1.31008294       0.00000000
Si      -1.26597736      -1.48129858       1.32694620       0.00000000
Si       1.50244300       1.28800144       1.28548825       0.00000000
H       -1.15416280       1.18962613      -2.69631314       0.00000000
Si      -0.92488105      -2.95380057      -1.83188130       0.00000000
Si      -2.64093482      -2.50975145      -0.30683552       0.00000000
Si      -2.57228876      -0.05502762       2.62889073       0.00000000
H        0.11704365       2.94832713      -2.26793376       0.00000000
Si       0.16177599       2.64416024       2.62975052       0.00000000
