10
Lattice="16.290000149 0.0 0.0 0.0 16.290000149 0.0 0.0 0.0 29.1751946751" Properties=species:S:1:pos:R:3:initial_magmoms:R:1 pbc="T T T"
Si       1.29785689       1.28372238       1.50616651       0.00000000
Si      -1.33520986      -1.36471887       1.40860174       0.00000000
Si       1.48162438      -1.29895614      -1.33975411       0.00000000
Si      -1.35654976       1.38655464      -1.39865883       0.00000000
Si      -0.00545715      -2.55160828      -2.71507279       0.00000000
Si      -2.60809418       2.72946316       0.08771989       0.00000000
Si       2.69674436      -2.71410103       0.11000566       0.00000000
Si       2.28656216       3.07101559       0.35363253       0.00000000
Si       2.36959229       2.37869058      -1.87616924       0.00000000
Si       0.16563672       2.76015352      -2.68009173       0.00000000
