10
Lattice="16.290000149 0.0 0.0 0.0 16.290000149 0.0 0.0 0.0 29.1751946751" Properties=species:S:1:pos:R:3:initial_magmoms:R:1 pbc="T T T"
Si      -1.33317361      -1.35299854      -1.38194145       0.00000000
Si       1.33170751      -1.36241416       1.37587301       0.00000000
Si      -1.37437102       1.33600807       1.36309427       0.00000000
Si       1.35091342       1.35511624      -1.37000879       0.00000000
Si       0.00390960       2.71665074       2.66845083       0.00000000
Si      -2.69627195       2.70547580      -0.02652025       0.00000000
Si       2.70089180      -2.70265763      -0.00417205       0.00000000
Si      -2.69317685      -2.71454933      -0.03836538       0.00000000
Si       2.70215102       0.00938304       2.70649528       0.00000000
Si      -2.69296508       0.00133741      -2.73319059       0.00000000
