10
Lattice="16.290000149 0.0 0.0 0.0 16.290000149 0.0 0.0 0.0 29.1751946751" Properties=species:S:1:pos:R:3:initial_magmoms:R:1 pbc="T T T"
Si      -1.36445041      -1.36161595       1.34022092       0.00000000
Si       1.35422029       1.35381304       1.36029345       0.00000000
Si       1.36930483      -1.37945350      -1.32178219       0.00000000
Si      -1.38396583       1.33815835      -1.34938193       0.00000000
Si      -0.02003670       2.69954624      -2.67886637       0.00000000
Si       2.71598285      -0.04048065       2.66457053       0.00000000
Si      -0.00403992      -2.70602966      -2.68534327       0.00000000
Si      -2.73533538       0.00242721       2.67647401       0.00000000
Si      -0.01775610      -2.74237266       2.67918730       0.00000000
Si       2.72929178       2.69597873       0.01858460       0.00000000
