10
Lattice="16.290000149 0.0 0.0 0.0 16.290000149 0.0 0.0 0.0 29.1751946751" Properties=species:S:1:pos:R:3:initial_magmoms:R:1 pbc="T T T"
H        0.53458893       0.25756119      -1.38623020       0.00000000
Si       1.68875174      -0.93206494       1.31008294       0.00000000
Si      -0.85167379       1.87458806       1.11475501       0.00000000
Si      -1.79795990      -1.59493762      -0.11719676       0.00000000
H        1.80579539       2.01626219      -0.95785082       0.00000000
H       -1.06741855       1.10413621      -2.55288788       0.00000000
H       -0.14763627      -0.66326365      -3.00323619       0.00000000
Si      -2.16256268       0.50862267       2.60155211       0.00000000
Si       2.65854431      -2.38407410      -0.20498492       0.00000000
Si       0.42277437      -2.41336352       2.63702915       0.00000000
