10
Lattice="16.290000149 0.0 0.0 0.0 16.290000149 0.0 0.0 0.0 29.1751946751" Properties=species:S:1:pos:R:3:initial_magmoms:R:1 pbc="T T T"
Si       1.29995830      -1.34965909       1.41855632       0.00000000
Si      -1.37790595       1.34873056       1.35049059       0.00000000
Si      -1.42842124      -1.40392108      -1.24260072       0.00000000
Si       1.42731352       1.39069360      -1.28121992       0.00000000
Si      -2.63120969      -0.00669519      -2.68410332       0.00000000
Si       2.71448417      -0.05841594      -2.60926603       0.00000000
Si       0.05230719       2.65507454      -2.69854213       0.00000000
Si      -0.11300373      -2.72704702      -2.64342143       0.00000000
Si       2.63046035      -2.76895956       0.13242621       0.00000000
Si      -0.03109761       2.70565499       2.71253455       0.00000000
