10
Lattice="16.290000149 0.0 0.0 0.0 16.290000149 0.0 0.0 0.0 29.1751946751" Properties=species:S:1:pos:R:3:initial_magmoms:R:1 pbc="T T T"
Si       0.84577681      -1.84687877       1.12044418       0.00000000
Si      -1.72286300       0.75825064       1.37736094       0.00000000
Si      -1.07544952      -0.08509896      -2.09804660       0.00000000
Si       1.79795990       1.59493762       0.11719676       0.00000000
H        2.33254883       1.85249882      -1.26903344       0.00000000
H       -1.15307137      -3.02277243      -1.06022657       0.00000000
H        1.65032363       0.93167398      -2.88603943       0.00000000
Si      -0.36460278       2.10356030       2.71874887       0.00000000
Si       2.56183058      -2.29092788      -0.40460160       0.00000000
Si      -0.62592697       2.12301056      -2.71253455       0.00000000
