10
Lattice="16.290000149 0.0 0.0 0.0 16.290000149 0.0 0.0 0.0 29.1751946751" Properties=species:S:1:pos:R:3:initial_magmoms:R:1 pbc="T T T"
Si      -1.33695289      -1.34377840       1.38156217       0.00000000
Si       1.32867757      -1.36829485      -1.36942529       0.00000000
Si      -1.35900955       1.33252201      -1.38573422       0.00000000
Si       1.34403904       1.32809113       1.41070819       0.00000000
Si       2.63086760      -2.73882144       0.01715501       0.00000000
Si       2.70112637       2.68786631       0.02792066       0.00000000
Si       2.68104080      -0.00977400      -2.73391997       0.00000000
Si      -0.04960305      -2.74893753      -2.67478185       0.00000000
Si      -2.73473265       0.00454491       2.69438758       0.00000000
Si      -2.74496277       2.68758938      -0.07425087       0.00000000
