10
Lattice="16.290000149 0.0 0.0 0.0 16.290000149 0.0 0.0 0.0 29.1751946751" Properties=species:S:1:pos:R:3:initial_magmoms:R:1 pbc="T T T"
Si      -1.37047771       1.36060760      -1.31370067       0.00000000
Si      -1.38743560      -1.35923761       1.30418955       0.00000000
Si       1.32387202      -1.35167905      -1.38488814       0.00000000
Si       1.35558865       1.37162942       1.33838288       0.00000000
Si      -0.00535941      -2.70508484       2.64035512       0.00000000
Si      -0.02443500       2.69073335      -2.66066105       0.00000000
Si       2.67380804       0.04316438      -2.69569463       0.00000000
Si      -2.70528032       0.01120752       2.69324975       0.00000000
Si       2.73800694       0.01226637       2.66066105       0.00000000
Si      -0.00426798       2.72894970       2.67796194       0.00000000
