10
Lattice="16.290000149 0.0 0.0 0.0 16.290000149 0.0 0.0 0.0 29.1751946751" Properties=species:S:1:pos:R:3:initial_magmoms:R:1 pbc="T T T"
Si      -1.22521978       1.85091869       0.66962907       0.00000000
Si      -1.53598411      -0.71539165      -1.61195868       0.00000000
Si       1.62287497       0.67768030      -1.55880148       0.00000000
Si       0.07496658      -1.46026819       1.93236067       0.00000000
H        0.33814782      -2.56252617      -0.88304562       0.00000000
H        0.07275114       2.40233519       1.58689719       0.00000000
H        1.55546695      -0.39952854      -2.61707331       0.00000000
Si      -2.75146248      -2.03989898      -0.11509614       0.00000000
H       -0.26940402       3.12049614      -2.04153425       0.00000000
Si       2.32103180      -1.96519304       2.20987512       0.00000000
