10
Lattice="16.290000149 0.0 0.0 0.0 16.290000149 0.0 0.0 0.0 29.1751946751" Properties=species:S:1:pos:R:3:initial_magmoms:R:1 pbc="T T T"
Si       0.46056717      -0.42401241       2.21238419       0.00000000
Si       1.82830817       1.29275812      -0.63704038       0.00000000
Si      -1.64680499       1.65887588      -0.09639484       0.00000000
Si      -0.66106450      -1.87657544      -1.29572875       0.00000000
H        1.81703549       0.15205086       2.48922761       0.00000000
Si      -2.06951257      -0.64298260      -2.67352731       0.00000000
Si       0.79928515       2.12512826      -2.58950275       0.00000000
Si      -3.41368356       0.65994049      -1.25272451       0.00000000
Si      -0.73204003       3.38726118      -1.37849877       0.00000000
Si       3.64819440      -0.16635348      -0.80333899       0.00000000
