10
Lattice="16.290000149 0.0 0.0 0.0 16.290000149 0.0 0.0 0.0 29.1751946751" Properties=species:S:1:pos:R:3:initial_magmoms:R:1 pbc="T T T"
Si       1.36259335      -1.34961022      -1.35124914       0.00000000
Si       1.37508778       1.36238158       1.32741301       0.00000000
Si      -1.35325918       1.35495334      -1.36656612       0.00000000
Si      -1.35205372      -1.34376211       1.37995753       0.00000000
Si      -0.01086543       2.71744895       2.63889636       0.00000000
Si      -2.71194293      -2.68900661       0.01219523       0.00000000
Si       2.68449428      -2.71907795       0.03836538       0.00000000
Si       0.00215028      -2.69224832      -2.71300135       0.00000000
Si      -2.72455139       0.04284270       2.68983625       0.00000000
Si       2.71896392       0.03003876      -2.70480312       0.00000000
