10
Lattice="16.290000149 0.0 0.0 0.0 16.290000149 0.0 0.0 0.0 29.1751946751" Properties=species:S:1:pos:R:3:initial_magmoms:R:1 pbc="T T T"
H        1.08201439      -1.71054776      -0.78485679       0.00000000
Si      -0.24838992       0.51447078      -2.29761981       0.00000000
Si       1.94215898       0.85201588       1.06140496       0.00000000
Si      -1.74625544       1.54241866       0.45059892       0.00000000
Si      -0.83437381      -1.99808255       1.09011335       0.00000000
Si       0.71034175       2.05305429       2.65745441       0.00000000
Si      -2.17217378      -0.84375685       2.64708846       0.00000000
Si       1.98189029      -2.45351837      -1.76307189       0.00000000
Si      -2.14667993      -0.78563413      -2.92865010       0.00000000
Si      -0.70661134       3.39603660       1.40289478       0.00000000
