10
Lattice="16.290000149 0.0 0.0 0.0 16.290000149 0.0 0.0 0.0 29.1751946751" Properties=species:S:1:pos:R:3:initial_magmoms:R:1 pbc="T T T"
Si       1.32154255       1.32584311      -1.36526695       0.00000000
Si      -1.25799526       1.40090743       1.36479810       0.00000000
Si      -1.72519247      -0.94045429      -1.27555993       0.00000000
Si       1.45016957      -1.38476404       1.22648726       0.00000000
Si      -3.43057629       0.72785350      -1.14783968       0.00000000
Si      -2.57284262       2.66462048      -0.10804450       0.00000000
Si      -2.59084307      -2.66842094       0.10684248       0.00000000
Si       2.58471152      -0.10129122      -2.69227529       0.00000000
Si      -2.66908394      -0.00350235       2.62242404       0.00000000
Si       2.81249622       0.01037673       2.54475968       0.00000000
