10
Lattice="16.290000149 0.0 0.0 0.0 16.290000149 0.0 0.0 0.0 29.1751946751" Properties=species:S:1:pos:R:3:initial_magmoms:R:1 pbc="T T T"
Si      -1.38595321       1.35506737       1.31148335       0.00000000
Si      -1.37508778      -1.36238158      -1.32741301       0.00000000
Si       1.35509995       1.37984446      -1.33619474       0.00000000
Si       1.35900955      -1.33252201       1.38573422       0.00000000
Si      -0.02205666       2.66201408       2.69940571       0.00000000
Si       2.68768712      -2.70081686       0.01630893       0.00000000
Si      -0.01249443      -2.71199180      -2.67866215       0.00000000
Si       2.70326036       0.03248226      -2.70156468       0.00000000
Si      -2.71627607       0.02917539       2.70235241       0.00000000
Si      -2.72834697      -0.00742824      -2.69397913       0.00000000
