10
Lattice="16.290000149 0.0 0.0 0.0 16.290000149 0.0 0.0 0.0 29.1751946751" Properties=species:S:1:pos:R:3:initial_magmoms:R:1 pbc="T T T"
Si       1.35609364      -1.39513914      -1.28931020       0.00000000
Si       1.39279501       1.34309422       1.32936775       0.00000000
Si      -1.32439982      -1.38365306       1.36183974       0.00000000
Si      -1.29406621       1.35324289      -1.43177268       0.00000000
Si      -2.64451976       2.67980276      -0.02514902       0.00000000
Si       2.70213635      -0.06501339      -2.63627059       0.00000000
Si       0.03370401       2.69850368       2.68300925       0.00000000
Si      -2.70420518      -0.03517011       2.70235241       0.00000000
Si      -2.65639286      -0.04189788      -2.75004510       0.00000000
Si      -2.63864543      -2.76758958      -0.00186721       0.00000000
