10
Lattice="16.290000149 0.0 0.0 0.0 16.290000149 0.0 0.0 0.0 29.1751946751" Properties=species:S:1:pos:R:3:initial_magmoms:R:1 pbc="T T T"
Si      -1.38916234      -1.35899326       1.31320469       0.00000000
Si      -1.36977724       1.34223085      -1.35270790       0.00000000
Si       1.35193969      -1.36878355      -1.35189100       0.00000000
Si       1.37658646       1.36547668       1.33642814       0.00000000
Si       2.77182498      -0.08330706       2.53121071       0.00000000
Si       0.00713502       2.69764031      -2.68496399       0.00000000
Si      -0.07066602      -2.80085376       2.58959028       0.00000000
Si      -2.68998401       2.71049312       0.03098406       0.00000000
Si      -2.67908600       0.00895950       2.72505071       0.00000000
Si       2.72701118      -0.02661786      -2.69359985       0.00000000
