10
Lattice="16.290000149 0.0 0.0 0.0 16.290000149 0.0 0.0 0.0 29.1751946751" Properties=species:S:1:pos:R:3:initial_magmoms:R:1 pbc="T T T"
Si       1.31849632      -1.44186049       1.27638559       0.00000000
Si      -1.34845363      -1.36117612      -1.34891513       0.00000000
Si       1.38916234       1.35899326      -1.31320469       0.00000000
Si      -1.28992366       1.36795276       1.41184602       0.00000000
Si       2.74629855      -0.05273073       2.45757252       0.00000000
Si       0.01938510       2.70122411      -2.66591259       0.00000000
Si      -2.66452274       2.71958294       0.06754058       0.00000000
Si      -2.71621091      -0.00412137      -2.67580298       0.00000000
Si      -0.06343326      -2.77905774       2.61876547       0.00000000
Si       2.74110204      -0.00979029      -2.66509568       0.00000000
