10
Lattice="16.290000149 0.0 0.0 0.0 16.290000149 0.0 0.0 0.0 29.1751946751" Properties=species:S:1:pos:R:3:initial_magmoms:R:1 pbc="T T T"
Si      -1.25154442       1.34290852       1.48637872       0.00000000
Si       1.35654976      -1.38655464       1.39865883       0.00000000
Si      -1.44645427      -1.44137831      -1.27536446       0.00000000
Si       1.52218648       1.37359888      -1.28143290       0.00000000
H       -0.64474192       1.15700703      -2.72172474       0.00000000
Si      -0.03863988      -2.62281057      -2.74556087       0.00000000
Si      -2.58731303      -0.06358313       2.83957793       0.00000000
Si      -2.88499812       2.52688202       0.27310900       0.00000000
Si       0.13620069       2.61751958       2.86414345       0.00000000
Si       3.72614205       0.99213594      -0.47751041       0.00000000
