10
Lattice="10.86 0.0 0.0 0.0 10.86 0.0 0.0 0.0 10.86" Properties=species:S:1:pos:R:3:initial_magmoms:R:1 pbc="T T T"
Si      -0.66161292      -1.55414202       1.33671396       0.00000000
Si       1.45847628       1.50143844       1.11788496       0.00000000
Si       1.45847628      -1.21356156      -1.59711504       0.00000000
Si      -1.25652372       1.50143844      -1.59711504       0.00000000
Si      -2.37322494      -0.18481548       2.29418586       0.00000000
Si      -2.68550424      -2.47354962      -0.03507780       0.00000000
Si       2.63874108      -2.69734164      -0.02389200       0.00000000
Si       0.10097628       2.85893844       2.47538496       0.00000000
Si      -2.61402372       2.85893844      -0.23961504       0.00000000
Si       0.10097628      -2.57106156      -2.95461504       0.00000000
