10
Lattice="10.86 0.0 0.0 0.0 10.86 0.0 0.0 0.0 10.86" Properties=species:S:1:pos:R:3:initial_magmoms:R:1 pbc="T T T"
Si      -1.18202412       1.33042602      -1.08550044       0.00000000
Si       1.53297588      -1.38457398      -1.08550044       0.00000000
Si      -0.01548636       1.24319850       2.09561076       0.00000000
Si      -1.18202412      -1.38457398       1.62949956       0.00000000
Si      -2.53952412      -0.02707398      -2.44300044       0.00000000
Si       0.17547588       2.68792602      -2.44300044       0.00000000
Si       0.17547588      -2.74207398      -2.44300044       0.00000000
Si      -2.53952412      -2.74207398       0.27199956       0.00000000
Si       2.71324068       2.56164594       0.48772260       0.00000000
Si       2.89047588      -0.02707398      -2.44300044       0.00000000
