10
Lattice="10.86 0.0 0.0 0.0 10.86 0.0 0.0 0.0 10.86" Properties=species:S:1:pos:R:3:initial_magmoms:R:1 pbc="T T T"
Si      -1.38733242       1.23218646       1.26320262       0.00000000
Si       1.32766758      -1.48281354       1.26320262       0.00000000
Si      -1.38733242      -1.48281354      -1.45179738       0.00000000
Si       2.64823272       2.31716562      -0.17242422       0.00000000
Si      -0.02983242       2.58968646       2.62070262       0.00000000
Si       2.68516758      -0.12531354       2.62070262       0.00000000
Si      -2.74483242       2.58968646      -0.09429738       0.00000000
Si      -2.74483242      -0.12531354       2.62070262       0.00000000
Si      -0.02983242      -2.84031354       2.62070262       0.00000000
Si       2.68516758      -2.84031354      -0.09429738       0.00000000
