10
Lattice="16.290000149 0.0 0.0 0.0 16.290000149 0.0 0.0 0.0 29.1751946751" Properties=species:S:1:pos:R:3:initial_magmoms:R:1 pbc="T T T"
Si      -1.33693660      -1.36377926       1.36767478       0.00000000
Si       1.34947990      -1.34898794      -1.37438507       0.00000000
Si       1.36031275       1.34702011       1.36604097       0.00000000
Si      -1.36940257       1.34358292      -1.36315262       0.00000000
Si      -2.69474069      -2.70695819      -0.01184513       0.00000000
Si      -0.00643455       2.73447201       2.67959575       0.00000000
Si       2.71533125       2.70031187      -0.00046680       0.00000000
Si       2.72367173      -2.69550173      -0.03935734       0.00000000
Si      -0.01790271       2.70826139      -2.71764021       0.00000000
Si      -2.76087810      -0.00153126       2.66766310       0.00000000
