10
Lattice="16.290000149 0.0 0.0 0.0 16.290000149 0.0 0.0 0.0 29.1751946751" Properties=species:S:1:pos:R:3:initial_magmoms:R:1 pbc="T T T"
Si      -1.37251396       1.36816453       1.25322049       0.00000000
Si      -1.42192153      -1.31079115      -1.31014129       0.00000000
Si       1.33615468       1.44933760      -1.25552533       0.00000000
Si       1.30346065      -1.30320001       1.45660077       0.00000000
Si       2.68040549       0.08247627      -2.60496561       0.00000000
Si      -0.04338027      -2.65613339      -2.63335307       0.00000000
Si      -2.77904145       0.05147640       2.50667438       0.00000000
Si       2.67975389      -2.65194686       0.12329437       0.00000000
Si      -0.14364522       2.49272840       2.87346492       0.00000000
Si      -0.05225832       2.79081912      -2.60161046       0.00000000
