10
Lattice="16.290000149 0.0 0.0 0.0 16.290000149 0.0 0.0 0.0 29.1751946751" Properties=species:S:1:pos:R:3:initial_magmoms:R:1 pbc="T T T"
Si       1.22163598      -1.52956585       1.24187134       0.00000000
Si      -1.38350971      -1.34918668      -1.29613720       0.00000000
Si      -1.04545963       1.46357506       1.48530916       0.00000000
Si       1.37261170       1.31450527      -1.36102283       0.00000000
Si       0.77419855       2.22187457       2.86080289       0.00000000
Si      -2.36014409       0.10257813       2.86765906       0.00000000
Si      -2.48582144       2.81409753       0.19947081       0.00000000
Si      -0.01749546      -2.68819211      -2.63180679       0.00000000
Si      -0.01228266       2.60954399      -2.71947825       0.00000000
Si      -2.73197964       0.01312974      -2.60088108       0.00000000
