10
Lattice="16.290000149 0.0 0.0 0.0 16.290000149 0.0 0.0 0.0 29.1751946751" Properties=species:S:1:pos:R:3:initial_magmoms:R:1 pbc="T T T"
Si       1.07724142      -1.41957577      -1.49940078       0.00000000
Si      -1.55295829       1.31768182      -1.18585496       0.00000000
Si      -1.04788684      -1.77702725       1.17558529       0.00000000
Si       2.13016187       0.98150509       0.67035845       0.00000000
Si       0.21830229       0.79645069       3.37361529       0.00000000
Si       2.35468694      -2.69899238      -0.04104950       0.00000000
H        2.98330176      -1.80869501       0.99163569       0.00000000
Si      -0.21295917       2.69522939      -2.50518644       0.00000000
Si      -1.38934153      -0.89912656       3.31150130       0.00000000
Si       2.48376890      -0.10288764      -2.75285467       0.00000000
