10
Lattice="16.290000149 0.0 0.0 0.0 16.290000149 0.0 0.0 0.0 29.1751946751" Properties=species:S:1:pos:R:3:initial_magmoms:R:1 pbc="T T T"
Si      -1.36819711      -1.35803215      -1.32875507       0.00000000
Si      -1.44026407       1.33366231       1.27915724       0.00000000
Si       1.35567010       1.35301483      -1.35775521       0.00000000
Si       1.36475992      -1.32413266       1.38048269       0.00000000
Si      -0.09269010       2.67695201       2.59288708       0.00000000
Si      -0.09790290      -2.62078409       2.68055854       0.00000000
Si       0.00179190      -2.71502174      -2.66226569       0.00000000
Si      -2.71116101       0.02440242      -2.67271041       0.00000000
Si       2.73106739      -0.01322748      -2.67265206       0.00000000
Si       2.73119771       2.69482214      -0.02272748       0.00000000
