10
Lattice="16.290000149 0.0 0.0 0.0 16.290000149 0.0 0.0 0.0 29.1751946751" Properties=species:S:1:pos:R:3:initial_magmoms:R:1 pbc="T T T"
Si       1.11742885      -0.05030352      -1.02054831       0.00000000
H        0.65311498       0.93069658       1.62281185       0.00000000
H       -0.87966001       1.77420908       0.46514013       0.00000000
Si      -2.24453396       1.19545795       0.18421218       0.00000000
Si      -2.74131381      -1.01317285       0.77728554       0.00000000
Si       0.11619657       0.66971449       3.00603701       0.00000000
Si       1.33890769      -2.18344646      -1.93478221       0.00000000
Si       3.18298458       0.64379710      -0.13201776       0.00000000
Si       0.90042976       1.45813420      -2.86261175       0.00000000
Si      -1.67819582      -0.92613538       2.88221748       0.00000000
