10
Lattice="16.290000149 0.0 0.0 0.0 16.290000149 0.0 0.0 0.0 29.1751946751" Properties=species:S:1:pos:R:3:initial_magmoms:R:1 pbc="T T T"
Si       1.56804283       0.77556691       1.58838512       0.00000000
Si      -0.90735301      -1.84236644       1.17223015       0.00000000
Si       1.14748390       0.12500946      -2.06461183       0.00000000
Si      -1.93523573       1.48488238      -0.30552264       0.00000000
Si      -1.94860982      -0.35613198       2.63807945       0.00000000
H       -2.85133647       0.45965493       1.72944719       0.00000000
Si      -0.05022207       0.94724722       3.26709665       0.00000000
H        1.87936103      -2.88174990      -0.10806492       0.00000000
Si       2.40367097       2.70044871       0.55561241       0.00000000
Si       2.69125463       1.96011056      -1.65989353       0.00000000
