10
Lattice="16.290000149 0.0 0.0 0.0 16.290000149 0.0 0.0 0.0 29.1751946751" Properties=species:S:1:pos:R:3:initial_magmoms:R:1 pbc="T T T"
Si      -1.27314545       1.36453186       1.41858549       0.00000000
Si       1.34481119      -1.34350147       1.37671909       0.00000000
Si      -1.37768767      -1.33255459      -1.36338602       0.00000000
Si       1.34301929       1.36682875      -1.36472808       0.00000000
Si       2.65729650       0.12585654       2.65287128       0.00000000
Si       0.01745474      -2.69477979      -2.69001130       0.00000000
Si      -2.66463026       2.72288982       0.06981624       0.00000000
Si      -2.68862543       0.03894939      -2.72872678       0.00000000
Si      -0.06011825      -2.65130178       2.76688794       0.00000000
Si      -2.77111799      -2.65411018       0.00697287       0.00000000
