10
Lattice="16.290000149 0.0 0.0 0.0 16.290000149 0.0 0.0 0.0 29.1751946751" Properties=species:S:1:pos:R:3:initial_magmoms:R:1 pbc="T T T"
Si      -1.37119447      -1.40792842      -1.31076564       0.00000000
Si      -1.34550514       1.27979128       1.46083117       0.00000000
Si       1.33952671      -1.33564969       1.42132796       0.00000000
Si       1.34232859       1.41747436      -1.35953781       0.00000000
Si       2.67154373      -0.02386485      -2.67319180       0.00000000
Si       0.05880690      -2.78083335      -2.59568498       0.00000000
Si      -2.68123628      -2.69592986       0.15909234       0.00000000
Si      -2.77795002       2.59897178       0.17764776       0.00000000
Si      -2.71979471      -0.04621473      -2.68633814       0.00000000
Si       2.68840388       2.75172312       0.02827076       0.00000000
