10
Lattice="16.290000149 0.0 0.0 0.0 16.290000149 0.0 0.0 0.0 29.1751946751" Properties=species:S:1:pos:R:3:initial_magmoms:R:1 pbc="T T T"
Si       1.42091155       1.43700607       1.16972108       0.00000000
Si       1.43058618      -1.24392070      -1.37286796       0.00000000
Si      -1.29578806       1.41436297      -1.35352481       0.00000000
Si      -1.63688438      -1.06639228       1.43585721       0.00000000
H        0.24537139      -2.70467759       1.69079006       0.00000000
H       -1.11832480       1.34833960       2.85035817       0.00000000
Si      -2.63425592       2.43550163       0.27964424       0.00000000
Si      -0.08477316       2.45483786       2.63131081       0.00000000
Si       2.85643524      -2.46042533       0.01350812       0.00000000
Si       0.06559283      -2.64451862      -2.68980707       0.00000000
