10
Lattice="16.290000149 0.0 0.0 0.0 16.290000149 0.0 0.0 0.0 29.1751946751" Properties=species:S:1:pos:R:3:initial_magmoms:R:1 pbc="T T T"
Si      -0.92983647       0.81540410       1.99680867       0.00000000
Si       1.36983914       1.38843744      -1.32157797       0.00000000
Si      -1.86326977      -0.89894900      -1.13946640       0.00000000
Si       1.84356864      -1.17031434       0.93777828       0.00000000
H        2.64935350       1.42653975      -0.49956686       0.00000000
H       -2.90701894       0.21768816      -1.10891997       0.00000000
Si       0.52690005      -2.59764415       2.28351331       0.00000000
Si       1.97564796      -0.13165089      -3.07232305       0.00000000
Si       0.40265297       2.79309157       2.48908173       0.00000000
Si      -0.64280080      -1.00531374       3.57043115       0.00000000
