10
Lattice="16.290000149 0.0 0.0 0.0 16.290000149 0.0 0.0 0.0 29.1751946751" Properties=species:S:1:pos:R:3:initial_magmoms:R:1 pbc="T T T"
Si       1.33999912       1.37754757      -1.31933148       0.00000000
Si      -1.36855549       1.37000530       1.34185473       0.00000000
Si       1.55295829      -1.31768182       1.18585496       0.00000000
Si      -1.40613652      -1.32616891      -1.35906809       0.00000000
Si       2.63019971      -2.73725760      -0.31354582       0.00000000
Si       2.56409489       2.81794522       0.10301761       0.00000000
Si      -0.05743854       2.71994458      -2.67942070       0.00000000
Si       2.64427427       0.03416013      -2.75495528       0.00000000
Si      -2.70532919       0.07341903       2.71641485       0.00000000
Si      -2.78019804      -2.65000835       0.00373442       0.00000000
