10
Lattice="16.290000149 0.0 0.0 0.0 16.290000149 0.0 0.0 0.0 29.1751946751" Properties=species:S:1:pos:R:3:initial_magmoms:R:1 pbc="T T T"
Si      -1.78109975      -1.33100704       0.66729505       0.00000000
Si       1.80859727      -1.46737063      -0.16160140       0.00000000
Si      -1.06034869       0.82285678      -1.94254281       0.00000000
Si       0.62856595       1.77018545       1.59503707       0.00000000
H        0.02850750      -1.15129576       3.16615048       0.00000000
Si      -2.60346782       2.05990310      -0.72126916       0.00000000
Si       3.41624109       0.22820661      -0.09948741       0.00000000
Si      -3.40848705       0.32689143       0.63065101       0.00000000
Si      -1.33636645      -1.73004689       2.88522253       0.00000000
Si       2.86220190       1.26547237       1.90648227       0.00000000
