10
Lattice="16.290000149 0.0 0.0 0.0 16.290000149 0.0 0.0 0.0 29.1751946751" Properties=species:S:1:pos:R:3:initial_magmoms:R:1 pbc="T T T"
Si       1.53554428      -1.27695682      -1.19419907       0.00000000
Si       1.39474981       1.32343219       1.36386741       0.00000000
Si      -1.21798702      -1.43353630       1.44137424       0.00000000
Si      -1.47235537       1.20855511      -1.45464603       0.00000000
H        0.35073999      -1.81011224      -2.24657752       0.00000000
Si      -2.66779703       2.68216481      -0.02398201       0.00000000
Si       2.85432617       2.50053131      -0.05353648       0.00000000
Si      -2.64798839      -0.06063138       2.72629357       0.00000000
Si      -0.13978449       2.53623899      -2.85473445       0.00000000
Si       0.06553467       2.76477141       2.67752140       0.00000000
