10
Lattice="16.290000149 0.0 0.0 0.0 16.290000149 0.0 0.0 0.0 29.1751946751" Properties=species:S:1:pos:R:3:initial_magmoms:R:1 pbc="T T T"
Si      -1.33472116      -1.33789934       1.32893595       0.00000000
Si       1.49669263      -1.23683618      -1.28017837       0.00000000
Si      -1.24996429       1.37010304      -1.41210568       0.00000000
Si       1.41812596       1.43088103       1.23542945       0.00000000
Si       0.65788795       2.15889743      -2.53380731       0.00000000
H       -0.55350163      -0.46030653      -3.33892014       0.00000000
Si       2.36266904       0.48992175      -2.66204979       0.00000000
Si       0.10070478      -2.68265351       2.58997539       0.00000000
Si      -2.66418065       0.08263917       2.61483266       0.00000000
Si      -2.69428457      -2.62139023      -0.08109245       0.00000000
