10
Lattice="16.290000149 0.0 0.0 0.0 16.290000149 0.0 0.0 0.0 29.1751946751" Properties=species:S:1:pos:R:3:initial_magmoms:R:1 pbc="T T T"
Si      -1.14748390      -0.12500946       2.06461183       0.00000000
Si      -1.52521642       0.99944038      -1.51156684       0.00000000
Si       0.97342525      -1.83368387      -1.18363765       0.00000000
Si       1.54377073       1.83510110       0.40471830       0.00000000
H       -2.04116960      -2.80282485      -0.91624699       0.00000000
Si       2.47721723      -0.67510648      -2.53252360       0.00000000
H        1.77381812       0.67753369      -3.09400022       0.00000000
Si      -2.55039500       2.61415243      -0.17169602       0.00000000
H        0.73187713      -3.00675936       1.95654691       0.00000000
Si       0.42055893       0.65055745       3.65299695       0.00000000
