10
Lattice="16.290000149 0.0 0.0 0.0 16.290000149 0.0 0.0 0.0 29.1751946751" Properties=species:S:1:pos:R:3:initial_magmoms:R:1 pbc="T T T"
Si       1.34703640      -1.34324083      -1.37091322       0.00000000
Si      -1.35997066      -1.35617509       1.35434171       0.00000000
Si      -1.35436690       1.33090930      -1.38669700       0.00000000
Si       1.36876726       1.33509583       1.36995044       0.00000000
Si      -0.00752598       2.68384268       2.70325684       0.00000000
Si       2.68710068      -2.71316468      -0.02080191       0.00000000
Si      -2.71982729       0.00908982       2.69001130       0.00000000
Si      -2.73290816       2.67625154      -0.06348522       0.00000000
Si      -0.01024641      -2.71412579      -2.69675077       0.00000000
Si       0.00355122      -2.68731245       2.73243203       0.00000000
