10
Lattice="16.290000149 0.0 0.0 0.0 16.290000149 0.0 0.0 0.0 29.1751946751" Properties=species:S:1:pos:R:3:initial_magmoms:R:1 pbc="T T T"
Si      -1.35607084      -1.35555607       1.34824410       0.00000000
Si      -1.39601555       1.34817670      -1.32426209       0.00000000
Si       1.31543380      -1.36550926      -1.38789319       0.00000000
Si       1.36562329       1.36189288       1.35629645       0.00000000
Si      -0.02075346       2.69529455      -2.67545288       0.00000000
Si       2.67833666      -2.72104904      -0.05376988       0.00000000
Si      -2.69167589       0.01353699       2.71151342       0.00000000
Si       2.68118741      -0.02109555      -2.73079822       0.00000000
Si       0.00192222      -2.69687468       2.72070360       0.00000000
Si      -2.70973070      -0.01918962      -2.71807784       0.00000000
