10
Lattice="16.290000149 0.0 0.0 0.0 16.290000149 0.0 0.0 0.0 29.1751946751" Properties=species:S:1:pos:R:3:initial_magmoms:R:1 pbc="T T T"
Si      -1.30583899       1.42905655       1.29891293       0.00000000
Si       1.26622171       1.48379095      -1.32175302       0.00000000
Si       1.45277479      -1.41426523       1.21540943       0.00000000
Si      -1.37694484      -1.03048912      -1.63080586       0.00000000
Si       0.33583464      -1.46637694      -3.16101564       0.00000000
Si      -0.42710751       2.41087115      -2.62670113       0.00000000
Si       2.23189292       0.03815118      -2.84528169       0.00000000
Si      -2.22149990       0.81502129      -2.75052065       0.00000000
Si       2.40679865      -2.68377752      -0.54020790       0.00000000
Si      -2.60760548      -0.05339862       2.57165337       0.00000000
