10
Lattice="16.290000149 0.0 0.0 0.0 16.290000149 0.0 0.0 0.0 29.1751946751" Properties=species:S:1:pos:R:3:initial_magmoms:R:1 pbc="T T T"
Si       1.33100867       1.36093177       1.37835290       0.00000000
Si      -1.29617902      -1.31292514       1.46888353       0.00000000
Si      -1.38854332       1.36006840      -1.35569836       0.00000000
Si       1.39903571      -1.35309628      -1.36704751       0.00000000
Si      -0.10598274      -2.74119978      -2.53393860       0.00000000
Si       0.07103303       2.53716752      -2.77310225       0.00000000
Si      -2.68561829      -2.65937510       0.19414633       0.00000000
Si       2.67724523       2.68921838      -0.00238653       0.00000000
Si       2.70137072       0.01339038       2.74173892       0.00000000
Si       2.75962377      -2.69001659       0.01302672       0.00000000
