10
Lattice="16.290000149 0.0 0.0 0.0 16.290000149 0.0 0.0 0.0 29.1751946751" Properties=species:S:1:pos:R:3:initial_magmoms:R:1 pbc="T T T"
Si       1.40413285      -1.63255775       0.91440895       0.00000000
Si       1.40999725       0.95224825      -1.63179781       0.00000000
Si      -1.78043186      -1.25669695      -1.00546473       0.00000000
Si      -0.04331511       1.66930148       1.83281490       0.00000000
H       -2.20955933       1.39784491       0.51161621       0.00000000
Si       2.84576529       2.20765340      -0.22695384       0.00000000
Si      -2.83504647       2.23697540      -0.57997369       0.00000000
Si       0.69722830       0.31483683       3.60293232       0.00000000
Si       2.68306076      -0.57211458       2.60058933       0.00000000
Si       0.06343326       2.25381926      -3.06453327       0.00000000
