10
Lattice="16.290000149 0.0 0.0 0.0 16.290000149 0.0 0.0 0.0 29.1751946751" Properties=species:S:1:pos:R:3:initial_magmoms:R:1 pbc="T T T"
Si      -1.30746799      -1.31092014      -1.44758563       0.00000000
Si      -1.32388831       1.39782536       1.36353190       0.00000000
Si       1.25903782      -1.39108782       1.43358154       0.00000000
Si       1.36572103       1.36210139      -1.37698166       0.00000000
Si       2.65064366       0.07188777       2.65406746       0.00000000
Si      -2.66636351      -2.66498212      -0.11608810       0.00000000
Si       2.69242751      -2.66959219       0.01747594       0.00000000
Si      -2.67082697       2.73160171      -0.04218733       0.00000000
Si       0.07133391       2.77900561       2.67303134       0.00000000
Si      -2.68165982       0.03559365      -2.78261337       0.00000000
