10
Lattice="16.290000149 0.0 0.0 0.0 16.290000149 0.0 0.0 0.0 29.1751946751" Properties=species:S:1:pos:R:3:initial_magmoms:R:1 pbc="T T T"
Si       1.18816003       1.52620360      -1.27971156       0.00000000
Si      -1.02517858       1.61471206       1.33987082       0.00000000
Si       1.52521642      -0.99944038       1.51156684       0.00000000
Si      -1.57503124      -1.30119634      -1.19875040       0.00000000
Si       2.46708794       2.58664677       0.40646881       0.00000000
Si      -1.55750320       0.36043254       3.27065602       0.00000000
H        3.29903454      -0.32190669      -1.58243338       0.00000000
Si       2.37081404       0.26722116      -2.82789327       0.00000000
H        0.77641399      -2.26095428      -2.82614276       0.00000000
Si       3.06898716       0.83566072       1.91628514       0.00000000
