10
Lattice="16.290000149 0.0 0.0 0.0 16.290000149 0.0 0.0 0.0 29.1751946751" Properties=species:S:1:pos:R:3:initial_magmoms:R:1 pbc="T T T"
H       -1.11742885       0.05030352       1.02054831       0.00000000
Si       0.22147884      -2.13314294      -0.91423390       0.00000000
Si       2.06555573       0.69410062       0.88853055       0.00000000
Si      -0.21699909       1.50843772      -1.84206344       0.00000000
H       -0.46431387       0.98100010       2.64336016       0.00000000
H       -1.99708886       1.82451260       1.48568844       0.00000000
Si       2.34738902      -1.54758259      -1.91739379       0.00000000
H        2.42709599      -2.36525915       0.66358980       0.00000000
Si       3.32302971       0.45302490      -1.05363298       0.00000000
Si       1.71183467       2.81359254       1.81516391       0.00000000
