10
Lattice="16.290000149 0.0 0.0 0.0 16.290000149 0.0 0.0 0.0 29.1751946751" Properties=species:S:1:pos:R:3:initial_magmoms:R:1 pbc="T T T"
Si       1.45328206      -1.35063649       1.26865417       0.00000000
Si      -1.25766946      -1.36894645      -1.45435428       0.00000000
Si       1.37798740       1.32642955      -1.38929360       0.00000000
Si      -1.43338969       1.27850437       1.41610560       0.00000000
Si       0.12738780      -2.77936725       2.56245735       0.00000000
Si      -2.69242751       2.66959219      -0.01747594       0.00000000
Si      -0.04178385       2.74147996       2.63659152       0.00000000
Si      -2.59382414      -2.81828406      -0.19882895       0.00000000
Si      -2.73746937      -0.32555565       2.67463597       0.00000000
Si       2.74678887       2.70081035      -0.06039265       0.00000000
