10
Lattice="16.290000149 0.0 0.0 0.0 16.290000149 0.0 0.0 0.0 29.1751946751" Properties=species:S:1:pos:R:3:initial_magmoms:R:1 pbc="T T T"
Si       1.36827856       1.34912152      -1.34960658       0.00000000
Si      -1.34289874      -1.37086867      -1.36218692       0.00000000
Si       1.35156502      -1.31750263       1.40784902       0.00000000
Si      -1.36262593       1.37466424       1.34824410       0.00000000
Si       2.67276548       2.64621278       0.12384870       0.00000000
Si      -2.70003494      -2.68421735       0.03556456       0.00000000
Si       0.08259030      -2.74833480      -2.65513235       0.00000000
Si      -0.00294849       2.76007989      -2.65289170       0.00000000
Si       2.76947922      -2.64868886       0.10529328       0.00000000
Si      -2.71720460      -0.02050911      -2.72218570       0.00000000
