10
Lattice="16.290000149 0.0 0.0 0.0 16.290000149 0.0 0.0 0.0 29.1751946751" Properties=species:S:1:pos:R:3:initial_magmoms:R:1 pbc="T T T"
Si      -0.98160283       1.84982726      -0.90644412       0.00000000
Si      -1.75330901      -1.49977144       0.32156900       0.00000000
Si       0.38931471       0.63004834       2.22259551       0.00000000
Si       1.76093273      -0.95281840      -1.25044884       0.00000000
H       -0.40531149      -1.22427496      -2.57164753       0.00000000
Si       1.87810670      -1.23598747       2.56808816       0.00000000
Si       2.50147613      -2.30728304       0.51966857       0.00000000
Si      -2.46475847       0.83372221      -2.37570693       0.00000000
Si      -3.57552471      -0.61167322      -0.82271131       0.00000000
Si      -1.05502186      -3.54333893      -0.45411191       0.00000000
