10
Lattice="16.290000149 0.0 0.0 0.0 16.290000149 0.0 0.0 0.0 29.1751946751" Properties=species:S:1:pos:R:3:initial_magmoms:R:1 pbc="T T T"
Si      -1.56283003       1.08087409      -1.36326932       0.00000000
Si       1.38034945      -1.47800800      -1.21756840       0.00000000
Si      -0.85833640      -1.48483351       1.63095173       0.00000000
Si       0.43447059       1.81156205       1.48764318       0.00000000
H        0.33847362      -1.12172941       2.52216640       0.00000000
Si      -1.87548889       1.97472269       2.09877598       0.00000000
Si      -0.23771997       2.56934027      -2.63434503       0.00000000
Si      -3.06851475       2.09870588       0.09832041       0.00000000
Si       2.69503391      -0.11701107      -2.59991830       0.00000000
Si      -0.12730635      -2.81655732      -2.51948229       0.00000000
