10
Lattice="16.290000149 0.0 0.0 0.0 16.290000149 0.0 0.0 0.0 29.1751946751" Properties=species:S:1:pos:R:3:initial_magmoms:R:1 pbc="T T T"
Si      -1.35513253      -1.34332228       1.37587301       0.00000000
Si       1.33573114       1.35193969       1.39247369       0.00000000
Si      -1.37722177       1.34631964      -1.35909727       0.00000000
Si       1.36262593      -1.37466424      -1.34824410       0.00000000
Si       2.71419095      -2.69216687       0.05960492       0.00000000
Si      -2.71520093      -2.69796611       0.02220232       0.00000000
Si       2.69939963       2.71345790       0.06366027       0.00000000
Si      -0.02335986       2.74307313      -2.67912312       0.00000000
Si       2.73090449      -0.02554272      -2.69785067       0.00000000
Si      -0.00633681      -2.70151733       2.74331438       0.00000000
