10
Lattice="16.290000149 0.0 0.0 0.0 16.290000149 0.0 0.0 0.0 29.1751946751" Properties=species:S:1:pos:R:3:initial_magmoms:R:1 pbc="T T T"
Si      -0.36181719       0.84445732       2.11604769       0.00000000
Si      -1.69958768      -1.18643329      -1.01774749       0.00000000
Si       1.62738730      -1.65789848       0.03664404       0.00000000
Si       0.80501923       1.73301167      -1.35192017       0.00000000
H       -2.40298679       0.16620687      -1.57922411       0.00000000
Si       3.40848705      -0.32689143      -0.63065101       0.00000000
Si      -2.63303417       1.32377428       1.91949441       0.00000000
Si       2.34813836       0.49596534      -2.57319382       0.00000000
Si      -0.50390020      -2.29014596      -2.67679494       0.00000000
Si       2.07212060      -2.05693832       2.25457152       0.00000000
