10
Lattice="16.290000149 0.0 0.0 0.0 16.290000149 0.0 0.0 0.0 29.1751946751" Properties=species:S:1:pos:R:3:initial_magmoms:R:1 pbc="T T T"
Si      -1.35531172      -1.35252613      -1.35238697       0.00000000
Si      -1.34288245       1.33037173       1.38844751       0.00000000
Si       1.34258923       1.35099487      -1.38433381       0.00000000
Si       1.34635222      -1.37960011       1.35241615       0.00000000
Si       0.06906960      -2.71373483      -2.62232485       0.00000000
Si      -2.70601337       2.66877443       0.02468221       0.00000000
Si       2.70643854       2.68055210      -0.00434710       0.00000000
Si       2.69625729      -0.03987792      -2.71285548       0.00000000
Si      -2.69578325      -0.05999607       2.71516032       0.00000000
Si       2.69852323      -0.02997360       2.71568547       0.00000000
