10
Lattice="16.290000149 0.0 0.0 0.0 16.290000149 0.0 0.0 0.0 29.1751946751" Properties=species:S:1:pos:R:3:initial_magmoms:R:1 pbc="T T T"
Si       1.29720529       1.28503911       1.50555091       0.00000000
Si      -1.33604065      -1.36407004       1.40735012       0.00000000
Si       1.48434481      -1.30068565      -1.33429835       0.00000000
Si      -1.35721765       1.38423543      -1.40029264       0.00000000
Si      -0.00050499      -2.55470615      -2.70419044       0.00000000
Si      -2.60801273       2.72717979       0.08653654       0.00000000
Si       2.70097976      -2.71413638       0.11314957       0.00000000
Si       2.37016244       2.37365420      -1.87508976       0.00000000
Si       2.28776762       3.07049154       0.35318907       0.00000000
Si       0.16751007       2.75728371      -2.67907060       0.00000000
