10
Lattice="16.290000149 0.0 0.0 0.0 16.290000149 0.0 0.0 0.0 29.1751946751" Properties=species:S:1:pos:R:3:initial_magmoms:R:1 pbc="T T T"
Si      -1.34481119       1.34350147      -1.37671909       0.00000000
Si       1.31248531       1.46935801       1.27615219       0.00000000
Si      -1.40492943      -1.30780031       1.39016885       0.00000000
Si       1.42197040      -1.34627892      -1.34138793       0.00000000
H        2.21296394       0.57070387       2.09046105       0.00000000
H        0.17371656       0.18601551       3.48663999       0.00000000
Si      -2.61620123      -2.58791902      -0.13563548       0.00000000
Si      -2.61795664       2.70803333       0.04186640       0.00000000
Si      -0.03565881      -2.77117338       2.55274201       0.00000000
Si       0.08358399      -2.69024384      -2.73634151       0.00000000
