10
Lattice="16.290000149 0.0 0.0 0.0 16.290000149 0.0 0.0 0.0 29.1751946751" Properties=species:S:1:pos:R:3:initial_magmoms:R:1 pbc="T T T"
Si      -1.32753076       1.36067113      -1.36615767       0.00000000
Si       1.31049793       1.43089732       1.32000251       0.00000000
Si      -1.34301929      -1.36682875       1.36472808       0.00000000
Si       1.37787337      -1.34392501      -1.35976830       0.00000000
Si       2.65896785       0.06858090       2.62474639       0.00000000
Si      -2.64691325       2.69755886       0.04139960       0.00000000
Si       2.68262093       2.68402187      -0.11232450       0.00000000
Si      -2.66809025       0.00908982      -2.73117750       0.00000000
Si      -2.61616474      -0.00229689       2.78331357       0.00000000
Si       0.02467935      -2.71138907      -2.70028097       0.00000000
