10
Lattice="16.290000149 0.0 0.0 0.0 16.290000149 0.0 0.0 0.0 29.1751946751" Properties=species:S:1:pos:R:3:initial_magmoms:R:1 pbc="T T T"
Si       1.33257088       1.32768388      -1.40008842       0.00000000
Si      -1.19544166       1.47360970       1.43066402       0.00000000
Si       1.47235537      -1.20855511       1.45464603       0.00000000
Si      -1.56916684      -1.12084975      -1.46482817       0.00000000
H        1.82309537      -3.01866735      -0.79193148       0.00000000
Si      -2.52423326       0.09252720       2.80536710       0.00000000
Si      -0.16635348       2.63924066      -2.69981416       0.00000000
Si       2.92560258       2.46084887      -0.06333935       0.00000000
Si      -2.59286303       2.89794216       0.20784409       0.00000000
H        2.02575926       3.20396610       0.91487575       0.00000000
