10
Lattice="16.290000149 0.0 0.0 0.0 16.290000149 0.0 0.0 0.0 29.1751946751" Properties=species:S:1:pos:R:3:initial_magmoms:R:1 pbc="T T T"
Si      -1.35891181       1.35889552       1.33882051       0.00000000
Si       1.34947990       1.37326330      -1.33572794       0.00000000
Si       1.38373777      -1.35814618       1.32119869       0.00000000
Si      -1.35482302      -1.37235106      -1.33832453       0.00000000
Si       2.67893939      -0.04727521      -2.62162464       0.00000000
Si       0.00560376      -2.71334387       2.65152922       0.00000000
Si      -2.72637587      -0.01273064      -2.65100406       0.00000000
Si       0.01231524       2.70718625       2.68303843       0.00000000
Si       2.73119771       0.01461539       2.67180598       0.00000000
Si      -2.70431921       0.00437387       2.70290674       0.00000000
