10
Lattice="16.290000149 0.0 0.0 0.0 16.290000149 0.0 0.0 0.0 29.1751946751" Properties=species:S:1:pos:R:3:initial_magmoms:R:1 pbc="T T T"
Si      -1.45399654       1.35444835       1.22868415       0.00000000
Si       1.34589610       1.35351982      -1.35154089       0.00000000
Si       1.33722982      -1.34894233       1.38477144       0.00000000
Si      -1.38144088      -1.35159760      -1.34217566       0.00000000
Si      -0.17101242      -2.70848945       2.54404780       0.00000000
Si       2.70933653       2.67177179       0.04329599       0.00000000
Si       2.70575273      -0.01174509      -2.68721048       0.00000000
Si      -0.01469358      -2.73904950      -2.65573045       0.00000000
Si      -0.01500309       2.66735720      -2.74538582       0.00000000
Si       2.72746730      -2.69164559       0.05948822       0.00000000
