10
Lattice="16.290000149 0.0 0.0 0.0 16.290000149 0.0 0.0 0.0 29.1751946751" Properties=species:S:1:pos:R:3:initial_magmoms:R:1 pbc="T T T"
Si       1.35366806      -1.39087279      -1.32852166       0.00000000
Si       1.36384931       1.32955723       1.37998671       0.00000000
Si      -1.34258923      -1.35099487       1.38433381       0.00000000
Si      -1.34902378       1.38385180      -1.36111036       0.00000000
Si      -2.69197139       2.68726358       0.06336852       0.00000000
Si       2.71003700       2.67623525       0.01076565       0.00000000
Si      -2.69790095      -2.70352100       0.03194684       0.00000000
Si       2.69990462      -0.06258618      -2.70926109       0.00000000
Si      -2.69509907       0.04960305      -2.74891893       0.00000000
Si       0.03405918       2.68006340       2.77073906       0.00000000
