10
Lattice="16.290000149 0.0 0.0 0.0 16.290000149 0.0 0.0 0.0 29.1751946751" Properties=species:S:1:pos:R:3:initial_magmoms:R:1 pbc="T T T"
Si       1.32286204       1.33722314       1.33860461       0.00000000
Si      -1.41854950       1.34234309      -1.25233356       0.00000000
Si       1.22878729      -1.20210443      -1.59859936       0.00000000
Si      -1.46052883      -1.43369937       1.21703158       0.00000000
Si      -2.45561978      -0.51171794      -2.20602108       0.00000000
Si      -0.71231284      -2.05394112      -2.66510444       0.00000000
Si       2.62330119       2.62624108      -0.13254291       0.00000000
Si       2.64068494      -0.09627406       2.61440670       0.00000000
Si       2.53070039      -2.72953630      -0.27819132       0.00000000
Si      -0.11899845       2.67074536       2.62091277       0.00000000
