10
Lattice="16.290000149 0.0 0.0 0.0 16.290000149 0.0 0.0 0.0 29.1751946751" Properties=species:S:1:pos:R:3:initial_magmoms:R:1 pbc="T T T"
H        1.08263341      -1.71414785      -0.78248164       0.00000000
Si      -0.25234839       0.51074037      -2.30230505       0.00000000
Si      -1.74330695       1.54222318       0.45908336       0.00000000
Si       1.94110013       0.85183669       1.06650508       0.00000000
Si      -0.83095291      -1.99492229       1.09963059       0.00000000
Si       0.71231284       2.05394112       2.66510444       0.00000000
Si      -2.16847595      -0.84079207       2.65738176       0.00000000
Si       1.98247673      -2.45726507      -1.76069674       0.00000000
Si      -2.15073614      -0.79263883      -2.93132225       0.00000000
Si      -0.70623667       3.39628421       1.41277087       0.00000000
