10
Lattice="16.290000149 0.0 0.0 0.0 16.290000149 0.0 0.0 0.0 29.1751946751" Properties=species:S:1:pos:R:3:initial_magmoms:R:1 pbc="T T T"
Si       2.29794887       0.05908383      -0.45743788       0.00000000
Si      -0.86488498       2.07614423      -0.79210654       0.00000000
Si      -0.14530680       0.41474340       2.35793923       0.00000000
Si      -0.91162099      -2.08484146      -0.81101206       0.00000000
H       -2.31019895       0.19699497       0.92170275       0.00000000
H       -1.01954224       2.87153607       0.48398730       0.00000000
Si      -3.58971330       0.15889266       0.09969164       0.00000000
Si      -2.98390449      -1.36119567      -1.65105344       0.00000000
Si       3.06398613       2.10430964       0.42732908       0.00000000
Si       2.05734557       0.03111390       3.16192007       0.00000000
