10
Lattice="16.290000149 0.0 0.0 0.0 16.290000149 0.0 0.0 0.0 29.1751946751" Properties=species:S:1:pos:R:3:initial_magmoms:R:1 pbc="T T T"
Si       1.32299236       1.32217786      -1.36520655       0.00000000
Si      -1.25664319       1.40400253       1.36287837       0.00000000
Si      -1.72380782      -0.94027510      -1.27722292       0.00000000
Si       1.45206647      -1.38313504       1.22443916       0.00000000
Si      -3.42858891       0.72870058      -1.14898043       0.00000000
Si      -2.57230505       2.66647754      -0.10945950       0.00000000
Si      -2.58978422      -2.66703303       0.10464851       0.00000000
Si       2.58391982      -0.10733481      -2.69336353       0.00000000
Si      -2.66835089       0.00068418       2.62025633       0.00000000
Si       2.81323904       0.01366731       2.54224186       0.00000000
