10
Lattice="16.290000149 0.0 0.0 0.0 16.290000149 0.0 0.0 0.0 29.1751946751" Properties=species:S:1:pos:R:3:initial_magmoms:R:1 pbc="T T T"
Si      -0.64239616       0.38428110      -2.15111628       0.00000000
Si       1.47649303      -1.80911855       0.12618272       0.00000000
Si       0.97564069       2.00060750       0.86376081       0.00000000
Si      -2.12591018      -0.58556035       1.00315989       0.00000000
H        0.07970697      -0.81767656       2.58098360       0.00000000
H        0.72278731      -1.25130007       2.62874339       0.00000000
H        2.29055321       1.53613072       1.46611188       0.00000000
H        2.83864656       1.34682463      -0.83000511       0.00000000
Si      -2.34738902       1.54758259       1.91739379       0.00000000
Si      -0.19531710      -3.32089572       0.85349115       0.00000000
