10
Lattice="16.290000149 0.0 0.0 0.0 16.290000149 0.0 0.0 0.0 29.1751946751" Properties=species:S:1:pos:R:3:initial_magmoms:R:1 pbc="T T T"
Si       1.33795961      -1.35770635       1.36548664       0.00000000
Si      -1.35217101      -1.34962651      -1.36326932       0.00000000
Si      -1.32705183       1.34892604       1.39463266       0.00000000
Si       1.35982079       1.35184195      -1.36096448       0.00000000
Si       2.68817257       0.02849121       2.68846501       0.00000000
Si      -2.67052072       2.70858719       0.02786231       0.00000000
Si      -2.69290318      -2.70417260       0.01525863       0.00000000
Si       0.03570279      -2.71404434      -2.68327183       0.00000000
Si      -2.69852323       0.02997360      -2.71568547       0.00000000
Si       2.70328969       2.71471223       0.00090443       0.00000000
