10
Lattice="16.290000149 0.0 0.0 0.0 16.290000149 0.0 0.0 0.0 29.1751946751" Properties=species:S:1:pos:R:3:initial_magmoms:R:1 pbc="T T T"
H       -1.44625879       0.27090270       0.44057461       0.00000000
Si       0.45636435      -2.13214925       0.88710097       0.00000000
Si      -0.34210629       0.24933474      -2.36269479       0.00000000
Si       1.23975046       1.58317624       1.41482189       0.00000000
H        0.17645328       2.66406662      -0.94819383       0.00000000
H        1.54014947      -1.38895057      -2.10776194       0.00000000
H        0.38696895      -3.21152466      -0.16863263       0.00000000
Si      -0.77467096       2.95042854       1.49817542       0.00000000
Si       3.42018327       0.18702549       0.36539014       0.00000000
Si      -2.03357846       1.90931834      -2.10052649       0.00000000
