10
Lattice="16.290000149 0.0 0.0 0.0 16.290000149 0.0 0.0 0.0 29.1751946751" Properties=species:S:1:pos:R:3:initial_magmoms:R:1 pbc="T T T"
H        1.36487395       0.57875113       0.28092795       0.00000000
Si      -0.44473329       0.39903984      -2.21792747       0.00000000
Si      -1.39238776       1.33980364       1.31501355       0.00000000
Si      -0.49677984      -2.20863080       0.59307336       0.00000000
H        2.24453396      -1.19545795      -0.18421218       0.00000000
H        2.89764894      -0.26476137       1.43859967       0.00000000
Si       0.56633815      -2.12159333       2.69800530       0.00000000
Si       1.33636645       1.73004689      -2.88522253       0.00000000
Si       0.13435992       2.66773187       2.49949728       0.00000000
Si      -2.80673933      -2.04547016       1.20420616       0.00000000
