10
Lattice="16.290000149 0.0 0.0 0.0 16.290000149 0.0 0.0 0.0 29.1751946751" Properties=species:S:1:pos:R:3:initial_magmoms:R:1 pbc="T T T"
H        0.64308034      -0.43362351       0.04775979       0.00000000
H       -1.14971563      -1.63406620       1.12356592       0.00000000
Si      -1.87550030      -1.71413156      -0.19707844       0.00000000
Si       0.85284667       1.73596016       1.74972395       0.00000000
Si      -0.07970697       0.81767656      -2.58098360       0.00000000
Si      -2.20561715       0.23211621      -1.57782370       0.00000000
Si       2.63293643       0.17961354       1.13401064       0.00000000
Si       1.39678606      -0.99144199      -2.45480088       0.00000000
Si      -0.27502407      -2.50321916      -1.72749245       0.00000000
Si      -0.36154026       3.05935977       0.22494075       0.00000000
