10
Lattice="16.290000149 0.0 0.0 0.0 16.290000149 0.0 0.0 0.0 29.1751946751" Properties=species:S:1:pos:R:3:initial_magmoms:R:1 pbc="T T T"
Si       1.36966000      -1.35619138       1.33978329       0.00000000
Si       1.39873532       1.33291297      -1.33517361       0.00000000
Si      -1.35091342       1.36244674       1.35874717       0.00000000
Si      -1.35637057      -1.34899120      -1.36758725       0.00000000
Si       0.08091243       2.76641018      -2.61097570       0.00000000
Si       0.02101410      -2.70863606       2.69692582       0.00000000
Si       2.69945013      -2.70669755      -0.05096907       0.00000000
Si      -2.71164971      -0.00029322       2.70028097       0.00000000
Si       2.68337516       0.01117494       2.73359904       0.00000000
Si      -2.71192664       2.71563914       0.00811070       0.00000000
