10
Lattice="16.290000149 0.0 0.0 0.0 16.290000149 0.0 0.0 0.0 29.1751946751" Properties=species:S:1:pos:R:3:initial_magmoms:R:1 pbc="T T T"
Si       1.36290286      -1.35553978       1.33412330       0.00000000
Si       1.36575361       1.34441371      -1.34290504       0.00000000
Si      -1.34346889      -1.36287028      -1.36186891       0.00000000
Si      -1.31543380       1.36550926       1.38789319       0.00000000
Si      -0.01907559       2.68939757      -2.67644483       0.00000000
Si      -0.01511712      -2.68622102       2.68756058       0.00000000
Si       2.71176374       0.00638568       2.68225070       0.00000000
Si      -2.67150464       0.00995319       2.73613728       0.00000000
Si       2.71573850      -0.02225214      -2.69578799       0.00000000
Si      -2.69537438      -0.00418653      -2.72093701       0.00000000
