10
Lattice="16.290000149 0.0 0.0 0.0 16.290000149 0.0 0.0 0.0 29.1751946751" Properties=species:S:1:pos:R:3:initial_magmoms:R:1 pbc="T T T"
Si      -1.31782289       1.43349721      -1.27580209       0.00000000
Si       1.31339983       1.38545963       1.36291922       0.00000000
Si      -1.39873532      -1.33291297       1.33517361       0.00000000
Si       1.28005420      -1.34627077      -1.45671747       0.00000000
Si      -2.64068494       0.09627406      -2.61440670       0.00000000
Si       2.64690250      -2.69293250      -0.08501652       0.00000000
Si      -0.02907532      -2.68910435       2.67495690       0.00000000
Si       2.65990192       0.02537982       2.71758186       0.00000000
Si       2.69334529       0.04338027      -2.71172056       0.00000000
Si       2.63893669       2.76814344       0.00221731       0.00000000
