10
Lattice="16.290000149 0.0 0.0 0.0 16.290000149 0.0 0.0 0.0 29.1751946751" Properties=species:S:1:pos:R:3:initial_magmoms:R:1 pbc="T T T"
Si      -1.55568410      -1.16093130       1.21561366       0.00000000
Si      -1.49972795       1.27731031      -1.23411073       0.00000000
Si       1.21127179       1.28011871       1.52580433       0.00000000
Si       1.36420720      -1.45995054      -1.23851619       0.00000000
H       -0.62746360      -1.75005915       2.46107355       0.00000000
Si      -0.10629763       2.59886590      -2.60446963       0.00000000
Si       2.61620123       2.58791902       0.13563548       0.00000000
Si       2.58054242      -0.18325436       2.68837749       0.00000000
Si       2.69978522      -0.10232482      -2.60070603       0.00000000
Si      -2.89133379      -0.18566528      -2.45459665       0.00000000
