10
Lattice="16.290000149 0.0 0.0 0.0 16.290000149 0.0 0.0 0.0 29.1751946751" Properties=species:S:1:pos:R:3:initial_magmoms:R:1 pbc="T T T"
Si       1.36111096       1.34949619      -1.35098656       0.00000000
Si       1.37021707      -1.35343837       1.34888595       0.00000000
Si      -1.35285193       1.36412543       1.35655903       0.00000000
Si      -1.36562329      -1.36189288      -1.35629645       0.00000000
Si      -0.03018537       2.69722492      -2.68242575       0.00000000
Si       2.66157425      -2.72101646      -0.06193894       0.00000000
Si      -0.00384444      -2.67727781       2.71168847       0.00000000
Si      -2.68842995       0.00649971       2.71874887       0.00000000
Si       2.71891505       2.69267512       0.02853334       0.00000000
Si       2.67973760      -0.02049282      -2.73380327       0.00000000
