10
Lattice="16.290000149 0.0 0.0 0.0 16.290000149 0.0 0.0 0.0 29.1751946751" Properties=species:S:1:pos:R:3:initial_magmoms:R:1 pbc="T T T"
Si      -1.36880147      -1.37438080      -1.32890094       0.00000000
Si       1.35024390       1.35021947      -1.37499775       0.00000000
Si       1.41094044      -1.33896552       1.33038888       0.00000000
Si      -1.39514240       1.36222520       1.32662528       0.00000000
Si      -0.01745474       2.69477979       2.69001130       0.00000000
Si       0.07536243      -2.69659124       2.69257872       0.00000000
Si      -2.70114429      -0.00833071      -2.69981416       0.00000000
Si       2.70343793       2.71768353      -0.03448508       0.00000000
Si       0.00215354      -2.71680713      -2.70672869       0.00000000
Si      -2.70608016       2.73372918      -0.03871548       0.00000000
