10
Lattice="16.290000149 0.0 0.0 0.0 16.290000149 0.0 0.0 0.0 29.1751946751" Properties=species:S:1:pos:R:3:initial_magmoms:R:1 pbc="T T T"
Si      -1.40652748      -1.31668813       1.25345389       0.00000000
Si       1.37251396      -1.36816453      -1.25322049       0.00000000
Si       1.22886874       1.12456387       1.62024444       0.00000000
Si      -1.39245292       1.45472959      -1.18795558       0.00000000
Si      -0.35360703       1.08439273       3.42321312       0.00000000
Si       2.70866864       0.08117307      -2.50874581       0.00000000
Si      -0.04940757      -2.67895568      -2.56336178       0.00000000
Si      -2.48376890       0.10288764       2.75285467       0.00000000
Si       2.53294841       2.72862390       0.36171406       0.00000000
Si      -2.76620493       0.08501751      -2.52097022       0.00000000
