10
Lattice="16.290000149 0.0 0.0 0.0 16.290000149 0.0 0.0 0.0 29.1751946751" Properties=species:S:1:pos:R:3:initial_magmoms:R:1 pbc="T T T"
Si       1.35021295       1.38619756       1.32297838       0.00000000
Si      -1.33795961       1.35770635      -1.36548664       0.00000000
Si       1.38901573      -1.35071794      -1.33313135       0.00000000
Si      -1.35023902      -1.36480879       1.36490313       0.00000000
Si       2.65991267      -0.04145805       2.61873630       0.00000000
Si      -2.66501144       2.70663239       0.02914602       0.00000000
Si       0.04233771      -2.71241534      -2.68540162       0.00000000
Si      -2.69079851      -2.71639010      -0.00011670       0.00000000
Si      -2.69013062       0.00807984      -2.72875596       0.00000000
Si       0.02186118       2.70954830      -2.72645112       0.00000000
