10
Lattice="10.86 0.0 0.0 0.0 10.86 0.0 0.0 0.0 10.86" Properties=species:S:1:pos:R:3:initial_magmoms:R:1 pbc="T T T"
Si       1.14391638      -1.10575434       1.75956978       0.00000000
Si      -1.72758708      -1.39607472      -0.88187544       0.00000000
Si      -1.68169272       1.21426746       1.41073572       0.00000000
Si      -0.22312956       2.36945652      -2.40265554       0.00000000
Si      -0.17100156      -2.70465042      -2.31199626       0.00000000
Si      -2.88600156       0.01034958      -2.31199626       0.00000000
Si       2.54399844      -2.70465042       0.40300374       0.00000000
Si      -2.88600156      -2.70465042       0.40300374       0.00000000
Si      -2.88600156       2.72534958       0.40300374       0.00000000
Si       2.54399844       0.01034958       3.11800374       0.00000000
