10
Lattice="16.28999089631971 0.0 0.0 0.0 16.28999089631971 0.0 0.0 0.0 34.51007289658418" Properties=species:S:1:pos:R:3:initial_magmoms:R:1 pbc="T T T"
Si      -0.92416428      -1.48398642      -1.60133730       0.00000000
Si      -1.84925220       0.32897655       1.47716999       0.00000000
Si       0.85980249       1.89389888      -1.28211894       0.00000000
Si       1.99236474      -0.69608799       1.26983335       0.00000000
Si      -1.76451814       0.24770574      -2.94571245       0.00000000
Si      -2.76313912       1.97812632      -1.52255076       0.00000000
Si      -3.07743254       2.22547694       0.88014539       0.00000000
Si       3.66946911       1.00396899       0.90754640       0.00000000
Si       0.84058029      -2.55917529      -2.89242887       0.00000000
Si       2.75064795      -2.86979301       0.44963199       0.00000000
