10
Lattice="16.28999089631971 0.0 0.0 0.0 16.28999089631971 0.0 0.0 0.0 34.51007289658418" Properties=species:S:1:pos:R:3:initial_magmoms:R:1 pbc="T T T"
Si      -1.03661415       1.35176375      -1.52931474       0.00000000
Si       2.06167869      -0.40542878      -0.91959043       0.00000000
Si       0.15833880       1.44624575       1.78427530       0.00000000
Si      -0.95760765      -2.11897455      -0.23808513       0.00000000
Si       0.88935255      -3.31777194       0.62539189       0.00000000
Si       1.40673924      -1.05450450      -3.06377147       0.00000000
Si      -0.52836615       0.29244297      -3.54132213       0.00000000
Si      -3.30492009       1.08429824      -0.96721435       0.00000000
Si       2.91885849       1.78221071      -1.32656794       0.00000000
Si      -0.96312996       0.45135192       3.55995758       0.00000000
