10
Lattice="16.28999089631971 0.0 0.0 0.0 16.28999089631971 0.0 0.0 0.0 34.51007289658418" Properties=species:S:1:pos:R:3:initial_magmoms:R:1 pbc="T T T"
Si      -0.35096805       2.03605289      -1.15705437       0.00000000
Si      -2.22474159      -0.69407685       0.50691874       0.00000000
Si       1.41688791      -1.25313336      -1.46319340       0.00000000
Si       1.43773911       0.38474699       1.89298209       0.00000000
Si      -0.06589305      -3.20777046       0.44580137       0.00000000
Si       2.21674320      -2.72369682       0.23729139       0.00000000
Si       2.85956289       0.38314243      -2.37971243       0.00000000
Si      -2.63867049       2.00081762      -1.77871917       0.00000000
Si       3.01681026       2.01730310       1.22469415       0.00000000
Si       1.30818474       2.16809963      -2.88224839       0.00000000
