10
Lattice="16.28999089631971 0.0 0.0 0.0 16.28999089631971 0.0 0.0 0.0 34.51007289658418" Properties=species:S:1:pos:R:3:initial_magmoms:R:1 pbc="T T T"
Si       1.40691843      -1.29754737      -1.29026333       0.00000000
Si      -0.67693095      -1.68443487       1.43938143       0.00000000
Si      -1.32724404       1.44210483      -1.27852990       0.00000000
Si       1.94660613       0.58520196       1.26434625       0.00000000
Si       1.11977460      -0.43041438       3.31044961       0.00000000
Si      -2.50191594      -2.55388104       0.18407683       0.00000000
Si       0.04263093      -2.64956850      -2.64078127       0.00000000
Si      -2.68050321       0.06910218      -2.63784792       0.00000000
Si       2.75243985       0.07091037      -2.64009107       0.00000000
Si      -2.58176952       2.80679958       0.20688800       0.00000000
