10
Lattice="16.28999089631971 0.0 0.0 0.0 16.28999089631971 0.0 0.0 0.0 34.51007289658418" Properties=species:S:1:pos:R:3:initial_magmoms:R:1 pbc="T T T"
Si      -0.80770707       1.92375126       1.27701145       0.00000000
Si       1.12501998       1.61499060      -1.45746472       0.00000000
Si      -1.69728768      -1.03004928      -1.47592762       0.00000000
Si       0.09242946      -1.71717777       1.87227603       0.00000000
Si      -0.15910443       0.23472261       3.14725139       0.00000000
Si       2.37954546       0.25029585      -2.94288262       0.00000000
Si       2.37433266       2.97178470       0.05456046       0.00000000
Si      -0.32079897      -2.47528179      -2.91668946       0.00000000
Si      -1.93844484      -3.05483112       1.28819272       0.00000000
Si      -2.81838014       2.72715777       0.06146247       0.00000000
