10
Lattice="16.28999089631971 0.0 0.0 0.0 16.28999089631971 0.0 0.0 0.0 34.51007289658418" Properties=species:S:1:pos:R:3:initial_magmoms:R:1 pbc="T T T"
Si       1.26814392      -1.33739271       1.49351397       0.00000000
Si      -2.00212245      -0.82230291      -1.01093519       0.00000000
Si      -1.40110290       1.38704463       1.47959950       0.00000000
Si       1.98822708       0.82223775      -1.23343353       0.00000000
Si       2.58167178      -2.69304651       0.10498660       0.00000000
Si      -2.58149259       2.88271098       0.06004756       0.00000000
Si       2.64359007       0.02537982       2.85057503       0.00000000
Si       2.80370448       2.72732067      -0.02150324       0.00000000
Si      -2.81401605      -2.71715571       0.13756413       0.00000000
Si      -0.06970491      -2.68907175       2.85675233       0.00000000
