10
Lattice="16.28999089631971 0.0 0.0 0.0 16.28999089631971 0.0 0.0 0.0 34.51007289658418" Properties=species:S:1:pos:R:3:initial_magmoms:R:1 pbc="T T T"
Si       1.34716671       1.34763912       1.37122400       0.00000000
Si      -1.35672894       1.35503478      -1.35845527       0.00000000
Si       1.35681039      -1.35757602      -1.35728193       0.00000000
Si      -1.35713619      -1.35654975       1.38226723       0.00000000
Si       2.63524959      -0.10524969       2.75017827       0.00000000
Si      -2.71399545       2.71296918       0.00331297       0.00000000
Si       2.71565703       2.71350675       0.00376160       0.00000000
Si       0.00001629       2.71391400      -2.71549562       0.00000000
Si      -2.71440270      -0.00068418      -2.71570268       0.00000000
Si      -2.71461447      -2.71573848       0.00124236       0.00000000
