10
Lattice="16.28999089631971 0.0 0.0 0.0 16.28999089631971 0.0 0.0 0.0 34.51007289658418" Properties=species:S:1:pos:R:3:initial_magmoms:R:1 pbc="T T T"
Si       0.92391993       1.74724911       1.20457477       0.00000000
Si       1.45298655      -1.26672669      -1.36270001       0.00000000
Si      -1.28808288       1.45288881      -1.37895426       0.00000000
Si      -1.29204135      -1.22963436       1.60785970       0.00000000
Si       1.63046610       0.60359337       3.13427559       0.00000000
Si      -2.54135403      -2.58642846       0.09583453       0.00000000
Si       0.08376318      -2.61540837      -2.74828021       0.00000000
Si      -2.63524959       0.10524969      -2.75017827       0.00000000
Si      -2.55063933       2.83512789       0.12444339       0.00000000
Si       2.74784607       2.72927547       0.07975282       0.00000000
