10
Lattice="16.28999089631971 0.0 0.0 0.0 16.28999089631971 0.0 0.0 0.0 34.51007289658418" Properties=species:S:1:pos:R:3:initial_magmoms:R:1 pbc="T T T"
Si       1.95735753      -0.29774862      -1.26852197       0.00000000
Si      -1.34271954      -0.21190032      -1.92959729       0.00000000
Si      -0.85354713      -1.73550402       1.37881622       0.00000000
Si      -0.43150581       2.10354399       1.11895523       0.00000000
Si      -3.10616091      -1.15971768       1.36200981       0.00000000
Si      -3.34344105      -1.06828191      -0.95472170       0.00000000
Si       1.55023785      -2.49973308      -2.14124769       0.00000000
Si      -0.72014832       1.74081456      -3.14028035       0.00000000
Si       1.74353499       1.55683530      -2.83755782       0.00000000
Si      -0.45846576      -1.90004931      -3.29309104       0.00000000
