10
Lattice="16.28999089631971 0.0 0.0 0.0 16.28999089631971 0.0 0.0 0.0 34.51007289658418" Properties=species:S:1:pos:R:3:initial_magmoms:R:1 pbc="T T T"
Si      -0.46589400       1.51627320      -1.73282075       0.00000000
Si      -2.20639905      -0.49648662       0.77809905       0.00000000
Si       1.01056644      -1.84906161      -1.13482987       0.00000000
Si       1.42938234       0.94343535       1.67888147       0.00000000
Si      -0.29282904       3.49640415      -0.51002465       0.00000000
Si      -2.54583378       0.69002811      -2.48907491       0.00000000
Si       3.57770754       0.64705509       0.75722044       0.00000000
Si      -2.68291413      -2.66328468       0.04931492       0.00000000
Si       1.01364525      -0.23232798       3.68629903       0.00000000
Si      -3.83784907       0.42389838      -0.58353115       0.00000000
