10
Lattice="16.28999089631971 0.0 0.0 0.0 16.28999089631971 0.0 0.0 0.0 34.51007289658418" Properties=species:S:1:pos:R:3:initial_magmoms:R:1 pbc="T T T"
Si      -1.35296595       1.35111378       1.36363178       0.00000000
Si       1.34723187       1.35062508      -1.38978698       0.00000000
Si       1.36353816      -1.36541764       1.36200981       0.00000000
Si      -1.36122498      -1.36225355      -1.39175406       0.00000000
Si       2.51139672      -0.24891283      -2.77269265       0.00000000
Si       0.20704590      -2.57704772      -2.78969922       0.00000000
Si      -2.70692722       2.70725628       0.00410670       0.00000000
Si       0.00418653       2.70885270       2.71939526       0.00000000
Si      -2.71061202      -0.00523724       2.71956781       0.00000000
Si       2.72279205       2.70784272       0.00100079       0.00000000
