10
Lattice="16.28999089631971 0.0 0.0 0.0 16.28999089631971 0.0 0.0 0.0 34.51007289658418" Properties=species:S:1:pos:R:3:initial_magmoms:R:1 pbc="T T T"
Si       1.34952876      -1.34996859       1.35579799       0.00000000
Si      -1.33749045      -1.34633592      -1.37646263       0.00000000
Si       1.35355239       1.33823737      -1.38249155       0.00000000
Si      -1.36138788       1.36096051       1.35569446       0.00000000
Si      -0.21352932       2.47746532      -2.77900800       0.00000000
Si      -2.51788014       0.14933043      -2.79601457       0.00000000
Si       2.70720252      -2.70800073      -0.00548710       0.00000000
Si       2.70972747       0.00474039       2.71314894       0.00000000
Si      -0.00431685      -2.70985779       2.71328698       0.00000000
Si       2.71068858       2.72118327      -0.00690202       0.00000000
