10
Lattice="16.28999089631971 0.0 0.0 0.0 16.28999089631971 0.0 0.0 0.0 34.51007289658418" Properties=species:S:1:pos:R:3:initial_magmoms:R:1 pbc="T T T"
Si       1.35672894      -1.35503478       1.35845527       0.00000000
Si      -1.35767376      -1.35571896      -1.35724742       0.00000000
Si       1.35674523       1.35887922      -1.35704035       0.00000000
Si      -1.35726651       1.35793440       1.36176824       0.00000000
Si       2.71353933      -2.71261080       0.00117334       0.00000000
Si      -2.71437501      -2.71192662       0.00017255       0.00000000
Si      -0.00013032      -2.71347417      -2.71463287       0.00000000
Si       2.71538010       0.00154755      -2.71394267       0.00000000
Si      -2.71508525       0.00102627      -2.71428777       0.00000000
Si       0.00006516       2.71635750      -2.71397718       0.00000000
