10
Lattice="16.28999089631971 0.0 0.0 0.0 16.28999089631971 0.0 0.0 0.0 34.51007289658418" Properties=species:S:1:pos:R:3:initial_magmoms:R:1 pbc="T T T"
Si      -0.67681692       1.75659047      -1.36663416       0.00000000
Si       1.83539430      -0.73221921      -1.28833076       0.00000000
Si       0.77173875       0.67946960       2.16744085       0.00000000
Si      -1.67710437      -1.70005698       0.36228695       0.00000000
Si       1.87429482       1.63558509      -1.75925548       0.00000000
Si       2.73287556      -2.04714801       0.72239976       0.00000000
Si      -1.24913349       0.34927389       3.26738102       0.00000000
Si      -2.80966662       0.88992989      -2.18966535       0.00000000
Si      -1.35824391       3.60063476      -0.13990391       0.00000000
Si      -1.98824337      -1.81620468       2.76229131       0.00000000
