10
Lattice="16.28999089631971 0.0 0.0 0.0 16.28999089631971 0.0 0.0 0.0 34.51007289658418" Properties=species:S:1:pos:R:3:initial_magmoms:R:1 pbc="T T T"
Si       2.02087224       0.33019571      -1.09994017       0.00000000
Si       0.65493945       0.64907572       2.14418105       0.00000000
Si      -0.73910988      -2.16547857      -0.50508971       0.00000000
Si      -1.93510539       1.34694747      -0.47755066       0.00000000
Si      -2.85286770      -1.77670143       0.57593893       0.00000000
Si       1.24913349      -0.34927389      -3.26738102       0.00000000
Si      -1.40673924       1.05450450       3.06377147       0.00000000
Si      -0.42797088      -2.04933087      -2.90509407       0.00000000
Si       2.56829769       2.53867337      -0.36773954       0.00000000
Si       1.51211925       2.83671521       1.73720353       0.00000000
