10
Lattice="16.28999089631971 0.0 0.0 0.0 16.28999089631971 0.0 0.0 0.0 34.51007289658418" Properties=species:S:1:pos:R:3:initial_magmoms:R:1 pbc="T T T"
Si      -1.04858730      -2.02382073      -0.12264887       0.00000000
Si       2.06399187       0.28619901       0.99137142       0.00000000
Si      -1.85152140       1.50421860      -0.01073264       0.00000000
Si       0.54211491      -0.29170503      -2.31293540       0.00000000
Si      -2.65121379      -1.26876294      -1.69841419       0.00000000
Si      -1.61673363       2.22198858      -2.25181803       0.00000000
Si       3.42780696       1.35651717      -0.58456645       0.00000000
Si       2.82475116       0.19236861      -2.52144538       0.00000000
Si       0.00682551      -3.57586677      -1.50001567       0.00000000
Si      -3.87457650      -0.21716199       0.24802403       0.00000000
