10
Lattice="16.28999089631971 0.0 0.0 0.0 16.28999089631971 0.0 0.0 0.0 34.51007289658418" Properties=species:S:1:pos:R:3:initial_magmoms:R:1 pbc="T T T"
Si       1.57452624       0.39737174      -1.77957748       0.00000000
Si       1.83982518       0.68331500       1.40179891       0.00000000
Si      -0.70623666      -2.02617856       1.14833264       0.00000000
Si      -1.91982537       1.67703432       0.06302060       0.00000000
Si       0.48725019       2.08713507       2.65493283       0.00000000
Si      -2.22000120      -0.68188132       2.64340646       0.00000000
Si       3.40299729       1.50779751      -0.06113221       0.00000000
Si      -0.86843619       3.55701435       1.19693665       0.00000000
Si       1.71655875      -1.51646446      -3.11197763       0.00000000
Si      -3.78708291       0.45734664       1.24689001       0.00000000
