10
Lattice="16.28999089631971 0.0 0.0 0.0 16.28999089631971 0.0 0.0 0.0 34.51007289658418" Properties=species:S:1:pos:R:3:initial_magmoms:R:1 pbc="T T T"
Si       1.35555606      -1.35599853      -1.35434857       0.00000000
Si      -1.35883035      -1.35632433       1.35686780       0.00000000
Si       1.35622395       1.35961681       1.35641917       0.00000000
Si      -1.35786924       1.36011855      -1.36318315       0.00000000
Si       0.01979235      -2.69778954      -2.71472950       0.00000000
Si       2.71114470      -0.02498546      -2.70876270       0.00000000
Si       2.71371852      -2.71184781       0.00017255       0.00000000
Si      -0.00079821      -2.71342794       2.71380463       0.00000000
Si       2.71425609       0.00137569       2.71421875       0.00000000
Si      -2.71570590       0.00155412       2.71356306       0.00000000
