10
Lattice="16.28999089631971 0.0 0.0 0.0 16.28999089631971 0.0 0.0 0.0 34.51007289658418" Properties=species:S:1:pos:R:3:initial_magmoms:R:1 pbc="T T T"
Si       0.51261372      -1.18596087      -1.96793801       0.00000000
Si       1.88436204       0.91574235       1.26862002       0.00000000
Si      -0.93094255      -1.89096438       1.26752260       0.00000000
Si      -1.68967536       1.81289781      -0.08465326       0.00000000
Si      -2.02594562      -0.45107010       2.79423872       0.00000000
Si       0.69092406       2.26426113       2.79050818       0.00000000
Si      -3.37721741       0.85053348       1.33629776       0.00000000
Si      -1.86313519      -1.84101598      -2.66614619       0.00000000
Si       2.71746522      -2.26767877      -1.40176543       0.00000000
Si      -0.66948642       3.54253743       1.30001040       0.00000000
