10
Lattice="16.28999089631971 0.0 0.0 0.0 16.28999089631971 0.0 0.0 0.0 34.51007289658418" Properties=species:S:1:pos:R:3:initial_magmoms:R:1 pbc="T T T"
Si       1.35466011      -1.35816246      -1.35704035       0.00000000
Si       1.35581670       1.35819504       1.35773056       0.00000000
Si      -1.35887922      -1.35676152       1.35776507       0.00000000
Si      -1.35809730       1.35840681      -1.35890390       0.00000000
Si      -0.00798210      -2.68480377      -2.72596944       0.00000000
Si       2.71217097       2.71552671       0.00037961       0.00000000
Si       2.71352304      -2.71467963       0.00055216       0.00000000
Si       2.71378368       0.00063531       2.71539209       0.00000000
Si      -0.00162900      -2.71454931       2.71494346       0.00000000
Si      -0.00094482       2.71489140       2.71563366       0.00000000
