10
Lattice="16.28999089631971 0.0 0.0 0.0 16.28999089631971 0.0 0.0 0.0 34.51007289658418" Properties=species:S:1:pos:R:3:initial_magmoms:R:1 pbc="T T T"
Si      -1.00799262       2.11177044      -0.36570345       0.00000000
Si      -0.86653026      -0.86742621      -2.07046749       0.00000000
Si       2.44882683       0.14450859       0.03999720       0.00000000
Si      -0.30804390      -1.41120270       2.29181522       0.00000000
Si       2.20086045       1.37670048       2.16174668       0.00000000
Si       0.78156162       3.07845162       1.18238478       0.00000000
Si       1.40703246      -3.00258909       1.45063172       0.00000000
Si       2.98027179       0.60626493      -2.37170609       0.00000000
Si      -2.60633484       0.54149589      -2.84621985       0.00000000
Si       1.00036890      -0.08607636       3.76982867       0.00000000
