10
Lattice="16.28999089631971 0.0 0.0 0.0 16.28999089631971 0.0 0.0 0.0 34.51007289658418" Properties=species:S:1:pos:R:3:initial_magmoms:R:1 pbc="T T T"
Si       1.36119240       1.34759025       1.37380191       0.00000000
Si      -1.35366642      -1.36676358       1.37059247       0.00000000
Si       1.41079545      -1.17993357      -1.49595383       0.00000000
Si      -1.41907077       1.34633592      -1.37658342       0.00000000
Si       2.73476520       2.68309332       0.00546640       0.00000000
Si      -2.62014876      -0.26016759      -2.79399715       0.00000000
Si       2.71645524      -2.71492398      -0.02002621       0.00000000
Si       0.00558747       2.70521514       2.72935833       0.00000000
Si      -2.73259863       2.70198972       0.01194394       0.00000000
Si      -2.71293660      -0.00835677       2.72987598       0.00000000
