10
Lattice="16.28999089631971 0.0 0.0 0.0 16.28999089631971 0.0 0.0 0.0 34.51007289658418" Properties=species:S:1:pos:R:3:initial_magmoms:R:1 pbc="T T T"
Si      -2.30900976       0.31799709       0.19411927       0.00000000
Si       0.75021966       0.50896476       2.17244481       0.00000000
Si       0.04429251      -2.28058371      -0.68647475       0.00000000
Si       1.47668850       1.52906085      -1.07802626       0.00000000
Si      -2.62726749      -1.82667915       1.11843758       0.00000000
Si       3.47258817       0.42554367      -0.23774003       0.00000000
Si       0.25813134       2.81411379       2.08616958       0.00000000
Si      -2.89810503       0.22737582      -2.07643774       0.00000000
Si       2.96248311      -0.21116727       2.00155084       0.00000000
Si       0.67082220       3.59627814      -0.15691739       0.00000000
