10
Lattice="16.28999089631971 0.0 0.0 0.0 16.28999089631971 0.0 0.0 0.0 34.51007289658418" Properties=species:S:1:pos:R:3:initial_magmoms:R:1 pbc="T T T"
Si      -1.47880620       1.07504226       1.50543828       0.00000000
Si       1.41929883      -1.70175114       0.97936191       0.00000000
Si      -1.78955424      -0.96668118      -1.54808823       0.00000000
Si       1.30976487       1.51790220      -2.01045444       0.00000000
Si      -0.64110924       0.53123319      -2.99264617       0.00000000
Si      -0.78156162      -3.07845162      -1.18238478       0.00000000
Si       0.18433764       2.05881165       2.79811075       0.00000000
Si       0.93711483       3.36523707      -0.62501228       0.00000000
Si       1.66726521      -2.93394303      -1.14238758       0.00000000
Si       2.05615638       2.83841847       1.38168056       0.00000000
