10
Lattice="16.28999089631971 0.0 0.0 0.0 16.28999089631971 0.0 0.0 0.0 34.51007289658418" Properties=species:S:1:pos:R:3:initial_magmoms:R:1 pbc="T T T"
Si       1.36041048      -1.27827630       1.49049778       0.00000000
Si       1.83549204       1.04881536      -1.17921865       0.00000000
Si      -1.02018894      -1.72963962      -1.38466365       0.00000000
Si      -1.34135234       1.43392725       1.46582652       0.00000000
Si       2.55384846      -2.62679508      -0.03139038       0.00000000
Si       3.56562036      -0.74756439      -1.09440061       0.00000000
Si      -2.70773099      -2.69200395       0.03628736       0.00000000
Si       0.66948642      -3.54253743      -1.30001040       0.00000000
Si      -2.61003986       2.84636799      -0.04154325       0.00000000
Si       2.69689095       2.77060320       0.14273374       0.00000000
