10
Lattice="16.28999089631971 0.0 0.0 0.0 16.28999089631971 0.0 0.0 0.0 34.51007289658418" Properties=species:S:1:pos:R:3:initial_magmoms:R:1 pbc="T T T"
Si      -1.35711990      -1.35723393      -1.35773056       0.00000000
Si       1.35814617       1.35755973      -1.35769605       0.00000000
Si      -1.35692442       1.35698958       1.36166471       0.00000000
Si       1.36287027      -1.35718506       1.36135412       0.00000000
Si      -2.71393029       0.00006516      -2.71449483       0.00000000
Si       0.00011403       2.71466334      -2.71463287       0.00000000
Si      -2.71577106      -2.71409319       0.00062118       0.00000000
Si       0.00027693      -2.71494027      -2.71494346       0.00000000
Si       2.71453302       2.71565703      -0.00037961       0.00000000
Si       2.71562445       0.00021177      -2.71487444       0.00000000
