10
Lattice="16.28999089631971 0.0 0.0 0.0 16.28999089631971 0.0 0.0 0.0 34.51007289658418" Properties=species:S:1:pos:R:3:initial_magmoms:R:1 pbc="T T T"
Si      -1.36165455      -1.35498591       1.38884831       0.00000000
Si       1.35371970       1.36441782       1.39122950       0.00000000
Si      -1.26868752       1.41244074      -1.50736977       0.00000000
Si       1.34135234      -1.43392725      -1.46582652       0.00000000
Si      -2.70222381       2.69754255       0.02637951       0.00000000
Si       2.70585161       2.70454725       0.03584563       0.00000000
Si       2.70176282      -2.71220355       0.02467126       0.00000000
Si      -2.72053377      -2.70047475       0.00088691       0.00000000
Si      -0.00357576      -2.71127502       2.75061654       0.00000000
Si       2.71148795       0.00537570       2.75144479       0.00000000
