10
Lattice="16.28999089631971 0.0 0.0 0.0 16.28999089631971 0.0 0.0 0.0 34.51007289658418" Properties=species:S:1:pos:R:3:initial_magmoms:R:1 pbc="T T T"
Si      -0.49462956       1.04448222      -2.00762461       0.00000000
Si       0.81547740       1.90508292       1.21193029       0.00000000
Si      -1.98822708      -0.82223775       1.23343353       0.00000000
Si       1.72569744      -1.80198351       0.13704410       0.00000000
Si       2.03651064       0.57441798       2.73104729       0.00000000
Si      -0.72008316      -2.15963046       2.72694749       0.00000000
Si       3.38884128      -0.81821412       1.42971658       0.00000000
Si       0.59344470      -3.51528426       1.33842013       0.00000000
Si      -2.55862143       0.75828321      -2.99899603       0.00000000
Si       0.65536299      -0.79685793       4.08400855       0.00000000
