10
Lattice="16.28999089631971 0.0 0.0 0.0 16.28999089631971 0.0 0.0 0.0 34.51007289658418" Properties=species:S:1:pos:R:3:initial_magmoms:R:1 pbc="T T T"
Si      -2.06399187      -0.28619901      -0.99137142       0.00000000
Si       0.49462956      -1.04448222       2.00762461       0.00000000
Si       1.36381509       1.07031816      -1.57593787       0.00000000
Si      -0.01824480       3.01461341      -1.85712610       0.00000000
Si       1.31010696       0.86060070       3.21955490       0.00000000
Si       0.76075929      -0.09383040      -3.51281679       0.00000000
Si      -1.52187696      -0.57790404      -3.30430682       0.00000000
Si      -1.49359752      -1.86671997       3.24105814       0.00000000
Si      -3.11257917      -2.31001974      -1.11402029       0.00000000
Si       2.01634362       2.88677926       2.07122227       0.00000000
