10
Lattice="16.28999089631971 0.0 0.0 0.0 16.28999089631971 0.0 0.0 0.0 34.51007289658418" Properties=species:S:1:pos:R:3:initial_magmoms:R:1 pbc="T T T"
Si      -1.36264221      -1.32664131      -1.36892908       0.00000000
Si      -1.35466011       1.35816246       1.35704035       0.00000000
Si       1.35886293      -1.35651717       1.35759252       0.00000000
Si       1.35736425       1.36840887      -1.39248222       0.00000000
Si      -0.01006722      -2.73046138      -2.62206300       0.00000000
Si      -2.71275741      -2.71271180      -0.00486592       0.00000000
Si       0.00133578      -2.71321353       2.71473640       0.00000000
Si      -2.71353933       0.00140094       2.71480542       0.00000000
Si       2.71977840      -2.70947823      -0.00055216       0.00000000
Si      -2.71275741       2.71656927      -0.00186354       0.00000000
