10
Lattice="16.28999089631971 0.0 0.0 0.0 16.28999089631971 0.0 0.0 0.0 34.51007289658418" Properties=species:S:1:pos:R:3:initial_magmoms:R:1 pbc="T T T"
Si      -0.86068215      -0.08436591       2.18673199       0.00000000
Si       2.34559956       0.13289382       0.21810378       0.00000000
Si      -0.59634432      -2.21466527      -0.59333201       0.00000000
Si      -1.41379281       1.43676171      -1.38651197       0.00000000
Si      -3.09602853       0.27448650       1.66311036       0.00000000
Si      -2.83623561       2.22562125       0.37226036       0.00000000
Si       3.01687772       0.21778101      -2.02553535       0.00000000
Si       0.69664185      -2.84816708      -2.49946245       0.00000000
Si      -0.47711781      -3.58686971       1.40352545       0.00000000
Si      -0.47156292      -2.13961724       3.30016561       0.00000000
