10
Lattice="16.28999089631971 0.0 0.0 0.0 16.28999089631971 0.0 0.0 0.0 34.51007289658418" Properties=species:S:1:pos:R:3:initial_magmoms:R:1 pbc="T T T"
Si      -1.35905841      -1.35698958       1.35645368       0.00000000
Si      -1.35796698       1.35755973      -1.35766154       0.00000000
Si       1.35777150      -1.35798327      -1.35748899       0.00000000
Si       1.35806472       1.35874890       1.35735095       0.00000000
Si      -2.71472850       2.71425609       0.00024157       0.00000000
Si      -2.71378368      -0.00063531      -2.71539209       0.00000000
Si       2.71480225      -2.71505430       0.00031059       0.00000000
Si      -0.00161271       2.71489140      -2.71501248       0.00000000
Si       2.71493184       2.71508688       0.00013804       0.00000000
Si      -0.00026064      -2.71531494      -2.71483993       0.00000000
