10
Lattice="16.28999089631971 0.0 0.0 0.0 16.28999089631971 0.0 0.0 0.0 34.51007289658418" Properties=species:S:1:pos:R:3:initial_magmoms:R:1 pbc="T T T"
Si      -1.31448897       1.35092970      -1.32042515       0.00000000
Si       1.09775052       1.67014854       1.23860172       0.00000000
Si       1.42128621      -1.39349547      -1.29654416       0.00000000
Si      -1.57669281      -1.04971131       1.48248454       0.00000000
Si       1.74537576       0.21455559       2.94308968       0.00000000
Si      -3.46209741       0.49200687       1.23256245       0.00000000
Si      -2.58277950       2.66323581       0.31279948       0.00000000
Si      -2.65626369      -0.02228472      -2.67187487       0.00000000
Si       0.05810643       2.68824096      -2.66852739       0.00000000
Si       0.06173910      -2.73810465      -2.66659482       0.00000000
