10
Lattice="16.28999089631971 0.0 0.0 0.0 16.28999089631971 0.0 0.0 0.0 34.51007289658418" Properties=species:S:1:pos:R:3:initial_magmoms:R:1 pbc="T T T"
Si       1.19381265      -1.30548060      -1.64847808       0.00000000
Si       1.01024064       1.82534337       1.27200749       0.00000000
Si      -0.82539801      -1.90720062       1.29426650       0.00000000
Si      -1.52575398       1.36816452      -1.63118853       0.00000000
Si      -1.05342543       3.13558065       1.40704548       0.00000000
Si       2.63153940      -2.60361441      -0.29554443       0.00000000
Si      -1.10157867      -1.00294272       3.47071448       0.00000000
Si       2.56225102       2.81673648      -0.30731237       0.00000000
Si       0.86589495      -3.70294506       0.88394150       0.00000000
Si      -2.81463507      -2.70985779      -0.04186074       0.00000000
