10
Lattice="16.28999089631971 0.0 0.0 0.0 16.28999089631971 0.0 0.0 0.0 34.51007289658418" Properties=species:S:1:pos:R:3:initial_magmoms:R:1 pbc="T T T"
Si      -0.39148128       0.53380701      -2.20843884       0.00000000
Si       1.42325634      -1.81397295       0.47513495       0.00000000
Si       0.98297837       1.96814151       0.90671816       0.00000000
Si      -2.13527691      -0.48873258       1.08679182       0.00000000
Si      -1.92417480      -1.15737192      -2.73727149       0.00000000
Si       2.30292937      -1.22077260       2.58773926       0.00000000
Si      -0.31990302       2.45162871       2.84666848       0.00000000
Si      -2.50792695       1.35860229       2.47223398       0.00000000
Si      -1.90609290       2.37895902      -2.39324038       0.00000000
Si       3.20724755       1.41151221       1.71466844       0.00000000
