10
Lattice="16.28999089631971 0.0 0.0 0.0 16.28999089631971 0.0 0.0 0.0 34.51007289658418" Properties=species:S:1:pos:R:3:initial_magmoms:R:1 pbc="T T T"
Si      -1.41929883       1.70175114      -0.97936191       0.00000000
Si       0.24796638      -1.23219189      -2.12174949       0.00000000
Si       1.55701449       1.11514824       1.57575294       0.00000000
Si      -1.20049155      -1.46277684       1.60808199       0.00000000
Si      -2.20086045      -1.37670048      -2.16174668       0.00000000
Si      -2.50890435      -2.78790318       0.13006854       0.00000000
Si       2.68882740       2.84491818       0.29868485       0.00000000
Si       0.12347820       2.40025005       3.10950222       0.00000000
Si       1.40082597      -3.36947247      -1.50125803       0.00000000
Si      -2.89810503       2.77679340       0.52607637       0.00000000
