10
Lattice="16.28999089631971 0.0 0.0 0.0 16.28999089631971 0.0 0.0 0.0 34.51007289658418" Properties=species:S:1:pos:R:3:initial_magmoms:R:1 pbc="T T T"
Si      -1.35638685      -1.35809730      -1.35731644       0.00000000
Si       1.35866745       1.35670633      -1.35690231       0.00000000
Si      -1.35671265       1.35757602       1.35831723       0.00000000
Si       1.35894438      -1.35638685       1.36114706       0.00000000
Si      -2.71500543       2.71357421      -0.00058667       0.00000000
Si      -2.71441899      -0.00099369      -2.71425326       0.00000000
Si       0.00063531       2.71494746      -2.71470189       0.00000000
Si       0.00109143      -2.71544526      -2.71449483       0.00000000
Si       2.71642266       2.71359702      -0.00034510       0.00000000
Si      -2.71453302      -2.71565703       0.00037961       0.00000000
