10
Lattice="16.28999089631971 0.0 0.0 0.0 16.28999089631971 0.0 0.0 0.0 34.51007289658418" Properties=species:S:1:pos:R:3:initial_magmoms:R:1 pbc="T T T"
Si       1.59834874      -1.17447642       1.29809712       0.00000000
Si       1.83950590       0.85030542      -1.46602323       0.00000000
Si      -1.89232852       0.99629640       1.32042515       0.00000000
Si      -0.88958128      -1.94823513      -1.42461112       0.00000000
Si      -2.53995376       2.45188935      -0.38406282       0.00000000
Si       0.50288533       2.11843305      -2.93321980       0.00000000
Si      -2.21641807      -0.61175466      -2.91920870       0.00000000
Si      -0.77430931       3.55122000      -1.56354875       0.00000000
Si       3.53679358       1.88035470       0.00990440       0.00000000
Si       2.89214941      -2.80947114      -0.34568759       0.00000000
