10
Lattice="16.28999089631971 0.0 0.0 0.0 16.28999089631971 0.0 0.0 0.0 34.51007289658418" Properties=species:S:1:pos:R:3:initial_magmoms:R:1 pbc="T T T"
Si      -0.87461010      -1.92674862       0.98264036       0.00000000
Si       1.68169815       0.54680643       1.55008981       0.00000000
Si       0.61525701      -0.23179041      -2.29416191       0.00000000
Si      -1.96573059       1.29127572       0.42098861       0.00000000
Si      -1.31756778      -1.62772938      -2.75059239       0.00000000
Si       0.86081247       2.15150731      -2.61558891       0.00000000
Si       0.85138056       3.35198420      -0.53694252       0.00000000
Si      -1.92352320       1.00491381       2.76501761       0.00000000
Si      -1.08444159      -3.23496594      -0.98660903       0.00000000
Si       1.09555137      -2.97070956       1.62283708       0.00000000
