10
Lattice="16.28999089631971 0.0 0.0 0.0 16.28999089631971 0.0 0.0 0.0 34.51007289658418" Properties=species:S:1:pos:R:3:initial_magmoms:R:1 pbc="T T T"
Si       2.21627894       0.00874773      -0.73402966       0.00000000
Si      -0.59360664       1.44083421      -1.76025627       0.00000000
Si      -0.19622771       0.52458687       2.28895088       0.00000000
Si      -1.05927258      -2.09632752      -0.23049291       0.00000000
Si      -0.08531399      -0.11911248      -3.44762723       0.00000000
Si       2.69279401       2.17554579      -0.00524553       0.00000000
Si      -2.42214285      -0.09192447       2.47948110       0.00000000
Si       1.23098806      -1.21205745       3.01007377       0.00000000
Si      -1.22789037      -2.02114917      -2.59812680       0.00000000
Si       1.06134400       3.09593079      -1.36687573       0.00000000
