10
Lattice="16.28999089631971 0.0 0.0 0.0 16.28999089631971 0.0 0.0 0.0 34.51007289658418" Properties=species:S:1:pos:R:3:initial_magmoms:R:1 pbc="T T T"
Si      -1.35653509       1.35961227      -1.36021528       0.00000000
Si       1.35767376      -1.35737239      -1.36169922       0.00000000
Si      -1.37323071      -1.34426383       1.36314864       0.00000000
Si       1.36269108       1.36511829       1.38423431       0.00000000
Si      -0.00361638      -2.63202042       2.72998986       0.00000000
Si       2.71246419      -2.71252025      -0.00300238       0.00000000
Si       2.70977634       2.71769328      -0.00127687       0.00000000
Si      -2.71506899       2.71546155       0.00120785       0.00000000
Si      -2.71987681      -2.71072835      -0.00331297       0.00000000
Si      -0.00003258      -2.71371085      -2.71784231       0.00000000
