10
Lattice="16.28999089631971 0.0 0.0 0.0 16.28999089631971 0.0 0.0 0.0 34.51007289658418" Properties=species:S:1:pos:R:3:initial_magmoms:R:1 pbc="T T T"
Si       1.09633166       1.55255103      -1.51033418       0.00000000
Si      -1.49272275      -1.05629247      -1.63491562       0.00000000
Si       2.01067307      -0.80340651       1.21554898       0.00000000
Si      -1.12713768       0.46711575       2.26168791       0.00000000
Si       3.37476509       1.28454795       1.11861013       0.00000000
Si       2.34367325       2.99680614      -0.18190270       0.00000000
Si      -1.55280124       2.92289841       1.89346523       0.00000000
Si       2.49236837       0.22296123      -2.98267276       0.00000000
Si      -0.21552810      -2.48907942      -3.00458667       0.00000000
Si       2.81838014      -2.72715777      -0.06146247       0.00000000
