10
Lattice="16.28999089631971 0.0 0.0 0.0 16.28999089631971 0.0 0.0 0.0 34.51007289658418" Properties=species:S:1:pos:R:3:initial_magmoms:R:1 pbc="T T T"
Si       1.02482345      -1.92349062      -0.82561945       0.00000000
Si      -0.44042200       1.69818363      -1.55761301       0.00000000
Si       1.21893183       0.82139067       1.85481392       0.00000000
Si      -2.05849141      -0.89715546       0.80284278       0.00000000
Si      -2.13782371       0.00658116       2.95620352       0.00000000
Si      -0.42652663       1.52526528       3.37153248       0.00000000
Si       0.00544314      -3.71827395       0.45677558       0.00000000
Si       0.00398844       0.46491660      -3.73116215       0.00000000
Si       1.21063045       3.42697617      -1.43693122       0.00000000
Si      -2.61811807       2.74550031      -0.96079548       0.00000000
