10
Lattice="16.28999089631971 0.0 0.0 0.0 16.28999089631971 0.0 0.0 0.0 34.51007289658418" Properties=species:S:1:pos:R:3:initial_magmoms:R:1 pbc="T T T"
Si      -2.16241442       0.65739924      -0.54670888       0.00000000
Si       0.23728014      -0.09143577       2.31673151       0.00000000
Si       2.00072151       0.85638159      -0.97487559       0.00000000
Si      -0.33805008      -2.32964919      -0.38133652       0.00000000
Si       1.02882753      -2.36952711      -2.25992790       0.00000000
Si      -3.18179473      -1.13738409       0.73568615       0.00000000
Si       2.48989392      -0.66722211       2.33353792       0.00000000
Si       3.34344105       1.06828191       0.95472170       0.00000000
Si       2.88497529      -0.83176740      -2.33836934       0.00000000
Si      -0.47741103       1.96248888       3.24984989       0.00000000
