10
Lattice="16.28999089631971 0.0 0.0 0.0 16.28999089631971 0.0 0.0 0.0 34.51007289658418" Properties=species:S:1:pos:R:3:initial_magmoms:R:1 pbc="T T T"
Si      -1.42325634       1.81397295      -0.47513495       0.00000000
Si       0.87967303       0.59320035       2.11260431       0.00000000
Si       2.06904991       0.09651825      -1.15318924       0.00000000
Si      -0.44367281      -2.04833718      -1.12250977       0.00000000
Si       2.38238806      -1.36871838       2.01045444       0.00000000
Si       3.00735391       2.17388421      -0.70690473       0.00000000
Si      -0.44027797       3.78211446       0.43158321       0.00000000
Si      -3.55853325       1.32524037       0.61165687       0.00000000
Si      -2.66958795      -2.66484852      -0.93197955       0.00000000
Si       1.78399120       3.22548516       1.23953349       0.00000000
