10
Lattice="16.28999089631971 0.0 0.0 0.0 16.28999089631971 0.0 0.0 0.0 34.51007289658418" Properties=species:S:1:pos:R:3:initial_magmoms:R:1 pbc="T T T"
Si       1.34192133       1.35436689      -1.38747826       0.00000000
Si      -1.36992384      -1.36306575      -1.38371666       0.00000000
Si      -1.37415924       1.43486671       1.34551398       0.00000000
Si       1.42868187      -1.34615673       1.48759203       0.00000000
Si       2.69216685       2.69760024      -0.02112018       0.00000000
Si       2.69123832      -2.72839581      -0.01580562       0.00000000
Si       2.70161505      -0.00373041      -2.74458763       0.00000000
Si      -2.72395027      -2.73075786      -0.01425267       0.00000000
Si      -0.01286910       2.70951474      -2.74617510       0.00000000
Si      -0.16175970      -2.65873977       2.79600767       0.00000000
