10
Lattice="10.86 0.0 0.0 0.0 10.86 0.0 0.0 0.0 10.86" Properties=species:S:1:pos:R:3:initial_magmoms:R:1 pbc="T T T"
Si       1.24426278       1.18019964       1.18520610       0.00000000
Si      -1.47073722      -1.53480036       1.18520610       0.00000000
Si       1.24426278      -1.53480036      -1.52979390       0.00000000
Si      -0.21658098       2.67707688       2.37873096       0.00000000
Si       2.60176278       2.53769964      -0.17229390       0.00000000
Si       2.60176278      -0.17730036       2.54270610       0.00000000
Si      -0.15451608       2.53653762      -2.64037008       0.00000000
Si      -2.70877722      -0.25540548       2.63394096       0.00000000
Si      -0.11323722      -2.89230036       2.54270610       0.00000000
Si       2.60176278      -0.17730036      -2.88729390       0.00000000
