10
Lattice="10.86 0.0 0.0 0.0 10.86 0.0 0.0 0.0 10.86" Properties=species:S:1:pos:R:3:initial_magmoms:R:1 pbc="T T T"
Si      -1.24078758      -1.31751348       1.33627956       0.00000000
Si      -1.24078758       1.39748652      -1.37872044       0.00000000
Si       1.47421242      -1.31751348      -1.37872044       0.00000000
Si       1.54557348       1.29224226       1.34283900       0.00000000
Si       0.22757130       2.51570814       2.63139972       0.00000000
Si      -2.59828758      -2.67501348      -0.02122044       0.00000000
Si      -2.59828758       0.03998652       2.69377956       0.00000000
Si      -2.59828758       0.03998652      -2.73622044       0.00000000
Si      -2.59828758       2.75498652      -0.02122044       0.00000000
Si       0.26445186      -2.71631406       2.65624740       0.00000000
