10
Lattice="10.86 0.0 0.0 0.0 10.86 0.0 0.0 0.0 10.86" Properties=species:S:1:pos:R:3:initial_magmoms:R:1 pbc="T T T"
Si       1.39877886       1.35866202       1.11057618       0.00000000
Si      -1.31622114       1.35866202      -1.60442382       0.00000000
Si       1.39877886      -1.35633798      -1.60442382       0.00000000
Si       0.15451608      -2.53653762       2.64037008       0.00000000
Si      -2.66848662       2.54873340      -0.11356302       0.00000000
Si       2.75627886       0.00116202       2.46807618       0.00000000
Si       0.32626698       2.94922848       2.26424484       0.00000000
Si      -2.62509006      -2.70359700      -0.19879230       0.00000000
Si       2.75627886      -2.71383798      -0.24692382       0.00000000
Si       2.75627886       2.71616202      -0.24692382       0.00000000
