10
Lattice="16.28999089631971 0.0 0.0 0.0 16.28999089631971 0.0 0.0 0.0 34.185847837958455" Properties=species:S:1:pos:R:3:initial_magmoms:R:1 pbc="T T T"
Si       2.19776535       0.40112007       0.75690928       0.00000000
Si      -1.21350726       1.47727005       1.39997962       0.00000000
Si      -0.23959332      -2.35761490       0.08167004       0.00000000
Si      -0.59942313       0.52125882      -2.27715478       0.00000000
Si       0.89352279      -2.81927350      -1.92845894       0.00000000
Si       1.95616836       2.71754178       1.31335264       0.00000000
Si       3.38893902       0.26169396      -1.21120527       0.00000000
Si      -2.58178581      -2.51505775       0.34459354       0.00000000
Si      -3.60997803      -0.53040892      -0.48328560       0.00000000
Si      -0.21172113       3.60321279       0.79830836       0.00000000
