10
Lattice="16.28999089631971 0.0 0.0 0.0 16.28999089631971 0.0 0.0 0.0 34.185847837958455" Properties=species:S:1:pos:R:3:initial_magmoms:R:1 pbc="T T T"
Si       2.13504885       1.05169869       0.02351988       0.00000000
Si      -0.95242743       0.33396129      -2.16379445       0.00000000
Si      -1.45634229       1.62139257       1.04068616       0.00000000
Si       0.33840846      -2.18907463       0.96616097       0.00000000
Si       2.21724819       1.57423302      -2.25042143       0.00000000
Si      -1.31657409       0.90352485       3.31032005       0.00000000
Si       0.04935870       2.45990403      -2.76546571       0.00000000
Si       1.81853415       3.11041260       1.02745623       0.00000000
Si       0.26107983      -1.14330876      -3.56377407       0.00000000
Si      -0.38550285       3.70191879       0.68693081       0.00000000
