10
Lattice="16.28999089631971 0.0 0.0 0.0 16.28999089631971 0.0 0.0 0.0 34.185847837958455" Properties=species:S:1:pos:R:3:initial_magmoms:R:1 pbc="T T T"
Si       1.93924305       0.65896308      -1.12750972       0.00000000
Si      -1.35361755       1.33038801       1.37258649       0.00000000
Si       1.33208217      -1.40595732       1.35394835       0.00000000
Si      -1.81649790      -0.85630014      -1.47507712       0.00000000
Si       0.62226171       1.78261470      -2.69404258       0.00000000
Si       2.76856695       2.55741597      -0.01645708       0.00000000
Si      -2.69737965       2.63477718       0.02699658       0.00000000
Si      -0.00864999       2.68143174       2.71318526       0.00000000
Si       2.71034649      -0.03140712       2.71397153       0.00000000
Si      -2.71873584      -0.03924261       2.71397153       0.00000000
