10
Lattice="16.28999089631971 0.0 0.0 0.0 16.28999089631971 0.0 0.0 0.0 34.185847837958455" Properties=species:S:1:pos:R:3:initial_magmoms:R:1 pbc="T T T"
Si      -1.80191835      -0.92333349      -1.15377301       0.00000000
Si       0.96182676       1.83550833      -1.09227263       0.00000000
Si      -1.69554465       0.59546466       1.61917940       0.00000000
Si       1.84494024      -1.65237615       0.21896048       0.00000000
Si      -0.34127550      -2.20058352      -2.41711172       0.00000000
Si       2.39508612       0.54667611      -2.40962502       0.00000000
Si      -0.38835360      -0.42437079       3.41304858       0.00000000
Si       1.54557891      -1.77231942       2.60441609       0.00000000
Si      -2.66266566       2.75696847       0.23304505       0.00000000
Si       0.97451667      -3.58272486      -0.99870592       0.00000000
