10
Lattice="16.28999089631971 0.0 0.0 0.0 16.28999089631971 0.0 0.0 0.0 34.185847837958455" Properties=species:S:1:pos:R:3:initial_magmoms:R:1 pbc="T T T"
Si       2.31212930       0.49353813       0.13698277       0.00000000
Si      -1.11021141       2.09072376      -0.13763230       0.00000000
Si      -1.06231881      -0.61827066       2.07145842       0.00000000
Si      -0.15153447      -1.52902827      -1.97488335       0.00000000
Si      -1.62401430       0.34342578      -2.91810560       0.00000000
Si      -3.12205899       0.87617394      -1.10051143       0.00000000
Si       1.20271514      -3.28906992      -0.89963527       0.00000000
Si       0.18488824      -2.36170791       2.92231046       0.00000000
Si       2.54051509       2.09515464       1.84955796       0.00000000
Si      -3.26313039      -1.21577157       1.53976563       0.00000000
