10
Lattice="16.28999089631971 0.0 0.0 0.0 16.28999089631971 0.0 0.0 0.0 34.185847837958455" Properties=species:S:1:pos:R:3:initial_magmoms:R:1 pbc="T T T"
Si       1.43325936      -1.28883222      -1.31735238       0.00000000
Si      -0.96182676      -1.83550833       1.09227263       0.00000000
Si      -1.30471497       1.43353629      -1.31574565       0.00000000
Si       1.36677987       1.23575940       1.50499861       0.00000000
Si       0.05820417      -2.64857481      -2.66899319       0.00000000
Si      -2.65722480       0.06921621      -2.67234340       0.00000000
Si       2.77632099      -2.56567500       0.12600911       0.00000000
Si      -2.63010195       2.74383873       0.11640288       0.00000000
Si       0.88311348      -3.48788448       1.31123311       0.00000000
Si       2.77281864       0.06911847      -2.67220666       0.00000000
