10
Lattice="16.28999089631971 0.0 0.0 0.0 16.28999089631971 0.0 0.0 0.0 34.185847837958455" Properties=species:S:1:pos:R:3:initial_magmoms:R:1 pbc="T T T"
Si      -1.48638105       0.21339900      -1.86357416       0.00000000
Si      -0.91603557      -0.25262532       2.20009984       0.00000000
Si       1.32212898       2.01595266      -0.18221067       0.00000000
Si       0.93467133      -2.23847406      -0.32818432       0.00000000
Si      -2.17914588      -2.01300417      -2.08263720       0.00000000
Si      -0.10267587       1.22831487      -3.53023774       0.00000000
Si      -0.00697212      -2.88101682      -2.42053031       0.00000000
Si       3.49288551       1.32142851       0.52471887       0.00000000
Si       0.27968301      -2.05925148       3.18000353       0.00000000
Si      -3.22816487      -0.74616345       2.06311707       0.00000000
