10
Lattice="16.28999089631971 0.0 0.0 0.0 16.28999089631971 0.0 0.0 0.0 34.185847837958455" Properties=species:S:1:pos:R:3:initial_magmoms:R:1 pbc="T T T"
Si      -1.36677987      -1.23575940      -1.50499861       0.00000000
Si       1.38147345       1.49512878      -1.38685225       0.00000000
Si      -0.83523717      -0.00377928       2.36887546       0.00000000
Si       2.09030022      -1.22109840       0.77584825       0.00000000
Si      -1.78771347       2.27315547       2.18642549       0.00000000
Si       0.06647949      -2.52459162      -2.82235099       0.00000000
Si       3.03456636       2.39901201       0.05141554       0.00000000
Si      -2.32860663      -3.07126773      -0.41272597       0.00000000
Si      -2.67149484       0.19777689      -2.82074425       0.00000000
Si       1.53249804      -1.94924511       3.00572398       0.00000000
