10
Lattice="16.28999089631971 0.0 0.0 0.0 16.28999089631971 0.0 0.0 0.0 34.185847837958455" Properties=species:S:1:pos:R:3:initial_magmoms:R:1 pbc="T T T"
Si      -1.58421879      -0.73715508      -1.51569878       0.00000000
Si       1.57879422      -1.59549147       0.61999488       0.00000000
Si      -0.31838805       1.10565117       2.03094817       0.00000000
Si       1.41131673       1.21438692      -1.44770309       0.00000000
Si       2.91864672       1.97899065       0.22097744       0.00000000
Si       3.58044426      -0.26601570       0.23530132       0.00000000
Si       1.76805144       2.09855925       2.38234470       0.00000000
Si      -2.17197828       1.17597510      -2.77903750       0.00000000
Si       2.38980816      -0.54799560      -2.89598735       0.00000000
Si       1.39367466      -3.46263498      -0.78859958       0.00000000
