10
Lattice="16.28999089631971 0.0 0.0 0.0 16.28999089631971 0.0 0.0 0.0 34.185847837958455" Properties=species:S:1:pos:R:3:initial_magmoms:R:1 pbc="T T T"
Si       1.00571202       0.00967626      -2.26536066       0.00000000
Si      -0.68117124      -1.79758684       1.58823234       0.00000000
Si      -1.75905447       1.81521099       0.22494300       0.00000000
Si       1.89291429       0.94185522       1.45637404       0.00000000
Si      -0.91046113      -1.53299488      -1.85099377       0.00000000
Si      -2.02439368      -0.38371095       2.94925717       0.00000000
Si       1.40155902       2.28793050      -2.61139000       0.00000000
Si       0.68851314       2.35012572       2.93540506       0.00000000
Si      -3.11123429      -2.03619298      -0.89378949       0.00000000
Si      -3.46347296       0.82497447       1.55096975       0.00000000
