10
Lattice="16.28999089631971 0.0 0.0 0.0 16.28999089631971 0.0 0.0 0.0 34.185847837958455" Properties=species:S:1:pos:R:3:initial_magmoms:R:1 pbc="T T T"
Si      -0.79583166      -1.69819992       1.46934275       0.00000000
Si      -2.13511401       1.03496886      -0.48065329       0.00000000
Si       0.71475633      -1.34154666      -1.95095324       0.00000000
Si       1.78958682       1.48468689       0.88418326       0.00000000
Si      -1.75689279       3.26861198       0.04304001       0.00000000
Si      -2.22395967      -2.99369475       0.09609647       0.00000000
Si      -0.92334978      -3.14325324      -1.88056454       0.00000000
Si       0.90072297      -3.24560331       1.73243718       0.00000000
Si       2.98351350       0.21535380       2.49074808       0.00000000
Si       0.49671468       0.34730280      -3.99502878       0.00000000
