10
Lattice="16.28999089631971 0.0 0.0 0.0 16.28999089631971 0.0 0.0 0.0 34.185847837958455" Properties=species:S:1:pos:R:3:initial_magmoms:R:1 pbc="T T T"
Si      -2.31435288      -0.25063794       0.24336919       0.00000000
Si       0.94390776       1.89122013       1.03371224       0.00000000
Si       0.91313595      -1.72740789       1.31776261       0.00000000
Si       0.63987120      -0.32654934      -2.26074557       0.00000000
Si       2.33642583      -1.87395273      -1.99765113       0.00000000
Si       0.83251674       1.12088232       3.34864241       0.00000000
Si      -3.22513167       1.49595957      -1.05453144       0.00000000
Si       2.30104395      -0.64021329       2.87137352       0.00000000
Si       1.85991075      -3.25668051      -0.14976828       0.00000000
Si      -2.91820037       0.59712624       2.39926670       0.00000000
