10
Lattice="16.28999089631971 0.0 0.0 0.0 16.28999089631971 0.0 0.0 0.0 34.185847837958455" Properties=species:S:1:pos:R:3:initial_magmoms:R:1 pbc="T T T"
Si       1.35666378       1.35665040       1.35646101       0.00000000
Si      -1.35692442       1.35654451      -1.35659776       0.00000000
Si       1.35733167      -1.35700363      -1.35690543       0.00000000
Si      -1.35760860      -1.35856747       1.35769171       0.00000000
Si      -0.00050499       2.71172427       2.71521248       0.00000000
Si      -0.00086337       2.71323924      -2.71387923       0.00000000
Si       2.71404432      -0.00192978      -2.71476807       0.00000000
Si      -2.71472850       2.71433067       0.00034186       0.00000000
Si      -2.71451673      -2.71492174       0.00003419       0.00000000
Si       0.00053757      -2.71316242       2.71692178       0.00000000
