10
Lattice="16.28999089631971 0.0 0.0 0.0 16.28999089631971 0.0 0.0 0.0 34.185847837958455" Properties=species:S:1:pos:R:3:initial_magmoms:R:1 pbc="T T T"
Si       1.35716877      -1.35507388      -1.35875147       0.00000000
Si      -1.35736425       1.35980775      -1.35680287       0.00000000
Si      -1.33978734      -1.36193197       1.38100647       0.00000000
Si       1.35382932       1.35767376       1.38620272       0.00000000
Si       2.71668330      -2.70846404       0.00331603       0.00000000
Si      -2.71425609      -2.71155914       0.00181185       0.00000000
Si       0.00050499      -2.71172427      -2.71521248       0.00000000
Si      -2.71422351       0.00260640      -2.71487062       0.00000000
Si      -2.71371852       2.71645524       0.00198278       0.00000000
Si       2.71614573       0.00289962      -2.71514411       0.00000000
