10
Lattice="16.28999089631971 0.0 0.0 0.0 16.28999089631971 0.0 0.0 0.0 34.185847837958455" Properties=species:S:1:pos:R:3:initial_magmoms:R:1 pbc="T T T"
Si       1.23017193      -0.56885983      -1.94565443       0.00000000
Si       1.23388605       2.09074331       0.15424663       0.00000000
Si       1.24305732      -1.36194500       1.60912876       0.00000000
Si      -2.73803949       0.45151319       0.07599518       0.00000000
Si       2.25680031       0.81297200       1.88688893       0.00000000
Si      -0.63029268      -1.70185281       2.95909446       0.00000000
Si       2.96901540      -1.66160022      -0.73420986       0.00000000
Si      -2.33854353       2.84345534       0.19961128       0.00000000
Si      -0.29548431       3.39956336       1.43331084       0.00000000
Si      -0.20015523      -1.83297102      -3.29230410       0.00000000
