10
Lattice="16.28999089631971 0.0 0.0 0.0 16.28999089631971 0.0 0.0 0.0 34.185847837958455" Properties=species:S:1:pos:R:3:initial_magmoms:R:1 pbc="T T T"
Si       0.75871327      -1.00228297       1.97905402       0.00000000
Si       0.31835221       2.21811156      -0.83649398       0.00000000
Si      -0.08791713      -1.90078236      -1.51918574       0.00000000
Si      -2.34527523       1.26664524       0.55791335       0.00000000
Si       2.67488642       0.54038817       1.56468713       0.00000000
Si      -1.44205989      -1.50548107       2.93625830       0.00000000
Si       0.72341446      -1.06233606      -3.57095310       0.00000000
Si      -1.05307098       2.36618766      -2.78146469       0.00000000
Si       1.83516950      -3.24751643      -0.86825265       0.00000000
Si       0.13766027       3.81555783       0.82582799       0.00000000
