10
Lattice="16.28999089631971 0.0 0.0 0.0 16.28999089631971 0.0 0.0 0.0 34.185847837958455" Properties=species:S:1:pos:R:3:initial_magmoms:R:1 pbc="T T T"
Si       1.83402594       1.04945719       1.05894141       0.00000000
Si      -1.54999350      -1.17996519       1.38442505       0.00000000
Si       0.77066361      -1.69637448      -1.54123563       0.00000000
Si      -0.99921231       1.79264119      -1.38011763       0.00000000
Si      -2.49932583      -2.41657167      -0.40383765       0.00000000
Si       0.73746459       2.73060311       2.28098360       0.00000000
Si      -0.00881289      -0.72788511      -3.63091511       0.00000000
Si       0.19196136       1.65321509      -3.34823218       0.00000000
Si       2.76180660       2.54458759      -0.48978092       0.00000000
Si      -0.60387030      -3.61672113      -1.15370464       0.00000000
