10
Lattice="16.28999089631971 0.0 0.0 0.0 16.28999089631971 0.0 0.0 0.0 34.185847837958455" Properties=species:S:1:pos:R:3:initial_magmoms:R:1 pbc="T T T"
Si      -1.80296091      -0.86923603       1.31851611       0.00000000
Si       1.57830552      -1.82661073      -0.08255887       0.00000000
Si       0.87866631       1.86049719       1.42853307       0.00000000
Si      -0.22457394       0.46403694      -2.46155335       0.00000000
Si       1.66690683       2.09243421      -2.07679142       0.00000000
Si      -0.42114537      -2.11109345       2.80133834       0.00000000
Si       2.30874912       0.60421239       2.79470629       0.00000000
Si       3.41847279      -0.86533620       1.31843064       0.00000000
Si      -2.77009821      -2.60585333      -0.00625601       0.00000000
Si       0.73594962      -3.54798548       1.39323616       0.00000000
