10
Lattice="16.28999089631971 0.0 0.0 0.0 16.28999089631971 0.0 0.0 0.0 34.185847837958455" Properties=species:S:1:pos:R:3:initial_magmoms:R:1 pbc="T T T"
Si      -1.57830552       1.82661073       0.08255887       0.00000000
Si      -0.84235590      -1.72137474       1.47579503       0.00000000
Si       1.84016727       0.96127453       1.40098951       0.00000000
Si      -0.41498775      -1.22871627      -2.27062528       0.00000000
Si      -1.99945089      -0.28448271       2.88389721       0.00000000
Si      -1.80287946       2.29064767      -2.37899448       0.00000000
Si      -2.74401792      -2.57705586       0.21999122       0.00000000
Si      -3.38126643       0.95737470       1.40107498       0.00000000
Si       0.73044360       2.43082312       2.87726515       0.00000000
Si       3.23897328       2.19536746      -0.10259179       0.00000000
