10
Lattice="16.28999089631971 0.0 0.0 0.0 16.28999089631971 0.0 0.0 0.0 34.185847837958455" Properties=species:S:1:pos:R:3:initial_magmoms:R:1 pbc="T T T"
Si       1.40436090      -1.20625821       1.47100418       0.00000000
Si       0.92916531       1.85357394      -1.17067143       0.00000000
Si      -1.81231137      -1.00994742      -1.27173617       0.00000000
Si      -1.29054267       1.49012775       1.50017156       0.00000000
Si       1.15748595       0.75336363      -3.22320220       0.00000000
Si      -3.45046635       0.86258808      -0.99780512       0.00000000
Si      -2.62114245       2.76104097       0.11324752       0.00000000
Si       2.66971923      -2.71766070       0.08847644       0.00000000
Si       0.03319902      -2.54399301       2.84121475       0.00000000
Si      -2.75473674      -2.63989224       0.11809850       0.00000000
