10
Lattice="16.28999089631971 0.0 0.0 0.0 16.28999089631971 0.0 0.0 0.0 34.185847837958455" Properties=species:S:1:pos:R:3:initial_magmoms:R:1 pbc="T T T"
Si       1.38882024       1.31790987      -1.34350457       0.00000000
Si       1.35366642      -1.35918873       1.35690543       0.00000000
Si      -1.35984033       1.35549090       1.35752078       0.00000000
Si      -1.37826432      -1.37455020      -1.36002318       0.00000000
Si       0.05822046       2.58882309      -2.73042861       0.00000000
Si       2.71326240       2.71120986      -0.00304254       0.00000000
Si      -2.71034649       0.03140712      -2.71397153       0.00000000
Si      -0.00169416       2.71293660       2.71449458       0.00000000
Si       2.71322982      -0.00195480       2.71469969       0.00000000
Si       2.71256193      -2.71621089      -0.00246138       0.00000000
