10
Lattice="16.28999089631971 0.0 0.0 0.0 16.28999089631971 0.0 0.0 0.0 34.185847837958455" Properties=species:S:1:pos:R:3:initial_magmoms:R:1 pbc="T T T"
Si       0.83365704       1.34820927       1.74566711       0.00000000
Si      -0.27246654      -2.33823402       0.41966570       0.00000000
Si       0.55780218       0.72814671      -2.22987573       0.00000000
Si      -0.91080648       2.80207548       0.96773352       0.00000000
Si      -2.36773521       1.94546583      -0.63684852       0.00000000
Si       1.90641870       2.54456316      -1.23851977       0.00000000
Si       2.96057718      -1.65271824      -1.23469096       0.00000000
Si      -3.45388725       0.34536429       1.18238658       0.00000000
Si      -2.31552576      -2.89434204      -0.81403386       0.00000000
Si      -1.53249804       1.94924511      -3.00572398       0.00000000
