10
Lattice="16.28999089631971 0.0 0.0 0.0 16.28999089631971 0.0 0.0 0.0 34.185847837958455" Properties=species:S:1:pos:R:3:initial_magmoms:R:1 pbc="T T T"
Si       0.78530832      -1.74910617      -1.34278667       0.00000000
Si       0.16765668      -1.15908237       2.05439967       0.00000000
Si       1.59281991       1.76521698      -0.03692074       0.00000000
Si      -2.17629513       0.68054733      -0.69380217       0.00000000
Si       2.77827579      -2.38578453      -0.18019370       0.00000000
Si       0.46366227       3.52049706      -1.18255751       0.00000000
Si      -2.81002500       2.51628372       0.66088118       0.00000000
Si      -1.36541151      -2.91325473       2.12618999       0.00000000
Si       2.31484158      -2.08443582       2.27749664       0.00000000
Si      -3.66860574      -1.19436651      -0.61808047       0.00000000
