10
Lattice="16.28999089631971 0.0 0.0 0.0 16.28999089631971 0.0 0.0 0.0 34.185847837958455" Properties=species:S:1:pos:R:3:initial_magmoms:R:1 pbc="T T T"
Si       2.11036950       0.04562829       0.98780063       0.00000000
Si       0.16200405       0.38721330      -2.29527329       0.00000000
Si      -1.07096976      -2.17331406      -0.07011521       0.00000000
Si      -0.97849143       1.76238252       1.44828425       0.00000000
Si       1.19063610       0.28197990       3.13128867       0.00000000
Si      -3.29937660      -1.57967388      -0.48793488       0.00000000
Si       2.73701322      -2.19471912       1.15271325       0.00000000
Si      -2.01533364       0.86716557      -2.98220410       0.00000000
Si      -0.99613350      -2.91463938       2.10738777       0.00000000
Si      -0.81101394      -1.04749587       3.51598223       0.00000000
