10
Lattice="16.28999089631971 0.0 0.0 0.0 16.28999089631971 0.0 0.0 0.0 34.185847837958455" Properties=species:S:1:pos:R:3:initial_magmoms:R:1 pbc="T T T"
Si       1.35567009       1.33351569       1.38008345       0.00000000
Si      -1.35814617       1.35459495      -1.35923007       0.00000000
Si       1.35646830      -1.35997065      -1.35929844       0.00000000
Si      -1.34918667      -1.36420605       1.37659649       0.00000000
Si      -0.05082480       2.50566264       2.87404002       0.00000000
Si      -2.71529865       2.71332756       0.00010256       0.00000000
Si      -0.00053757       2.71316242      -2.71692178       0.00000000
Si       2.71459818      -0.00190593      -2.71681922       0.00000000
Si      -2.71505430      -0.00175932      -2.71688759       0.00000000
Si       2.71564074       2.71642266       0.00160674       0.00000000
