10
Lattice="16.28999089631971 0.0 0.0 0.0 16.28999089631971 0.0 0.0 0.0 34.185847837958455" Properties=species:S:1:pos:R:3:initial_magmoms:R:1 pbc="T T T"
Si       1.01636568      -1.66956210      -1.25639898       0.00000000
Si      -1.73884347       1.09274039      -1.21144457       0.00000000
Si       1.63416393       1.80221876       0.03763864       0.00000000
Si      -0.17964612      -1.59078366       2.16208515       0.00000000
Si      -1.72595808       0.29965522       2.34333862       0.00000000
Si       2.15295156      -0.08964387      -2.72827148       0.00000000
Si       1.59016464       1.94716718       2.40251436       0.00000000
Si      -2.96901540       1.66160022       0.73420986       0.00000000
Si      -0.71221509       2.47457222       2.62109879       0.00000000
Si      -0.46426500       2.71763531      -2.56158120       0.00000000
