10
Lattice="16.28999089631971 0.0 0.0 0.0 16.28999089631971 0.0 0.0 0.0 34.185847837958455" Properties=species:S:1:pos:R:3:initial_magmoms:R:1 pbc="T T T"
Si      -1.13311611       0.46165860       2.01012898       0.00000000
Si       0.01018125      -2.30102766      -0.56741702       0.00000000
Si      -1.19392668       1.26933309      -1.60656482       0.00000000
Si       2.29464198       0.69986727       0.43457074       0.00000000
Si       0.67942332       1.60924090      -2.95653052       0.00000000
Si      -0.89352279       2.81927350       1.92845894       0.00000000
Si      -1.49294592       3.34053233      -0.34869584       0.00000000
Si      -0.19587096      -0.98881929       3.66164821       0.00000000
Si       1.29249747      -2.55897981      -2.56188887       0.00000000
Si       2.22573528      -0.28119798      -3.13778398       0.00000000
