10
Lattice="16.28999089631971 0.0 0.0 0.0 16.28999089631971 0.0 0.0 0.0 34.185847837958455" Properties=species:S:1:pos:R:3:initial_magmoms:R:1 pbc="T T T"
Si      -0.04399929       0.14494842       2.36487572       0.00000000
Si      -1.63416393      -1.80221876      -0.03763864       0.00000000
Si       1.93870548      -0.73714531      -1.27465423       0.00000000
Si      -0.58396392       2.10222450      -1.08854638       0.00000000
Si       0.51878763      -1.89186263      -2.76591012       0.00000000
Si      -2.09842893       0.91541655      -2.59921984       0.00000000
Si       2.79047700       1.93766292       0.80767529       0.00000000
Si       1.20524823       2.17095201       2.51214843       0.00000000
Si      -2.34637902       0.67235346       2.58346015       0.00000000
Si      -3.37300740      -0.70947837      -1.24908321       0.00000000
