10
Lattice="16.28999089631971 0.0 0.0 0.0 16.28999089631971 0.0 0.0 0.0 34.185847837958455" Properties=species:S:1:pos:R:3:initial_magmoms:R:1 pbc="T T T"
Si      -1.36091767       1.25185392       1.39109130       0.00000000
Si       1.24383272      -1.47128022       1.28395279       0.00000000
Si       1.35035303       1.35677781      -1.32689024       0.00000000
Si      -1.36093160      -1.36215351      -1.32401863       0.00000000
Si      -2.18051165      -0.54499824       2.60827909       0.00000000
Si       0.38308541       2.20902174       2.67077085       0.00000000
Si      -0.52930445      -2.39469516       2.53399320       0.00000000
Si       2.70662585      -0.00180819      -2.68335125       0.00000000
Si      -0.00778825       2.71119357      -2.68382986       0.00000000
Si      -0.00741358      -2.71775844      -2.68447939       0.00000000
