10
Lattice="16.28999089631971 0.0 0.0 0.0 16.28999089631971 0.0 0.0 0.0 34.185847837958455" Properties=species:S:1:pos:R:3:initial_magmoms:R:1 pbc="T T T"
Si       1.58522877      -0.23328909      -1.70447314       0.00000000
Si      -1.22896647       1.98203688       0.39310328       0.00000000
Si       1.45958400       0.24878088       1.86791577       0.00000000
Si      -1.24924752      -2.02600359      -0.14727271       0.00000000
Si      -1.20524823      -2.17095201      -2.51214843       0.00000000
Si      -2.03142816       1.41820740       2.52291698       0.00000000
Si       2.87755098      -2.10328335      -1.18149775       0.00000000
Si      -0.03846069       0.78152904       3.68550994       0.00000000
Si       2.88854184       2.08722141       1.32025818       0.00000000
Si      -3.55162725      -1.49859855       0.07131172       0.00000000
