10
Lattice="16.28999089631971 0.0 0.0 0.0 16.28999089631971 0.0 0.0 0.0 34.185847837958455" Properties=species:S:1:pos:R:3:initial_magmoms:R:1 pbc="T T T"
Si       1.24720705      -1.74343725       0.85085204       0.00000000
Si      -2.20081158      -0.59750091      -0.53169279       0.00000000
Si       1.06231881       0.61827066      -2.07145842       0.00000000
Si      -0.52927839       1.68508647       1.64034045       0.00000000
Si      -2.52317439       1.79579331      -0.71427950       0.00000000
Si      -0.04789260       2.70899442      -2.20909072       0.00000000
Si      -0.53273187       3.49676253      -0.00560648       0.00000000
Si       1.23394699      -3.28552100      -0.94705107       0.00000000
Si       3.49224110      -1.00471833       1.14676491       0.00000000
Si      -2.57843007      -0.83738745      -2.80207877       0.00000000
