10
Lattice="16.28999089631971 0.0 0.0 0.0 16.28999089631971 0.0 0.0 0.0 34.185847837958455" Properties=species:S:1:pos:R:3:initial_magmoms:R:1 pbc="T T T"
Si      -0.89847495      -1.88507784      -0.99819313       0.00000000
Si       1.36620062      -1.55427681       1.28741586       0.00000000
Si       2.20077315       0.50319810      -0.95720427       0.00000000
Si      -1.83808215       1.44719545       0.86069757       0.00000000
Si       2.43006305       0.23860615       2.48202183       0.00000000
Si       1.44205989       1.50548107      -2.93625830       0.00000000
Si      -0.48078306      -2.59520781       2.50116592       0.00000000
Si       1.30871809      -3.07084323      -1.48541010       0.00000000
Si      -0.90321534       2.77212631      -2.37834495       0.00000000
Si      -0.35223867       2.86116745       2.44475924       0.00000000
