10
Lattice="16.28999089631971 0.0 0.0 0.0 16.28999089631971 0.0 0.0 0.0 34.185847837958455" Properties=species:S:1:pos:R:3:initial_magmoms:R:1 pbc="T T T"
Si       2.03089059       0.77074506      -0.93983785       0.00000000
Si      -2.05434819       1.16949168       0.40756391       0.00000000
Si      -0.86449401      -1.49269017      -1.74894895       0.00000000
Si       1.09602378      -0.55418580       2.29920467       0.00000000
Si       1.22116356       1.52383176      -3.09994023       0.00000000
Si      -0.37278036      -0.22628439      -3.68048462       0.00000000
Si       0.62812611      -3.33326699      -1.51706622       0.00000000
Si       2.76193692       2.45449575       0.63794246       0.00000000
Si       2.93410593      -2.00138125       1.43850710       0.00000000
Si      -3.94582896      -0.45890559       0.02280197       0.00000000
