10
Lattice="16.28999089631971 0.0 0.0 0.0 16.28999089631971 0.0 0.0 0.0 34.185847837958455" Properties=species:S:1:pos:R:3:initial_magmoms:R:1 pbc="T T T"
Si       1.35679410       1.35645201       1.35769171       0.00000000
Si      -1.35707103       1.35728280      -1.35663194       0.00000000
Si       1.35762489      -1.35698958      -1.35693962       0.00000000
Si      -1.35804843      -1.35920502       1.35834124       0.00000000
Si       0.00102627      -2.71285515       2.71309296       0.00000000
Si       2.71437223      -0.00210141      -2.71336645       0.00000000
Si      -0.00043983      -2.71557558      -2.71312714       0.00000000
Si       2.71494838      -2.71440270       0.00013674       0.00000000
Si      -2.71464705      -2.71472850       0.00023930       0.00000000
Si       2.71548071       2.71510317       0.00071790       0.00000000
