10
Lattice="16.28999089631971 0.0 0.0 0.0 16.28999089631971 0.0 0.0 0.0 34.185847837958455" Properties=species:S:1:pos:R:3:initial_magmoms:R:1 pbc="T T T"
Si       1.35907470      -1.35365013       1.35475172       0.00000000
Si      -1.35659862      -1.35552348      -1.35810194       0.00000000
Si       1.35804843       1.35920502      -1.35834124       0.00000000
Si      -1.35690813       1.35881406       1.36152052       0.00000000
Si      -0.02059056      -2.69933282       2.72413499       0.00000000
Si       2.71360449      -2.71298873      -0.00044442       0.00000000
Si       0.00024435      -2.71289425      -2.71510992       0.00000000
Si       2.71257822      -0.01972719       2.71599876       0.00000000
Si      -2.71557558      -2.71349698      -0.00170929       0.00000000
Si      -2.71422351       0.00195480      -2.71510992       0.00000000
