10
Lattice="16.28999089631971 0.0 0.0 0.0 16.28999089631971 0.0 0.0 0.0 34.185847837958455" Properties=species:S:1:pos:R:3:initial_magmoms:R:1 pbc="T T T"
Si       0.22832064      -1.10021031      -2.05253077       0.00000000
Si      -0.92916531      -1.85357394       1.17067143       0.00000000
Si       1.95750414       0.87079824       1.09196872       0.00000000
Si      -1.69337808       1.75301577       0.04140695       0.00000000
Si       1.78474869       1.03496886      -2.24441604       0.00000000
Si      -2.21970798      -0.36344619       2.67084299       0.00000000
Si       0.49537890       2.37982239       2.63574436       0.00000000
Si      -2.23101324       2.27002779      -2.14267890       0.00000000
Si      -3.55030776       0.90746703       1.28391895       0.00000000
Si      -2.74147668      -2.86352136      -0.10106474       0.00000000
