10
Lattice="16.28999089631971 0.0 0.0 0.0 16.28999089631971 0.0 0.0 0.0 34.185847837958455" Properties=species:S:1:pos:R:3:initial_magmoms:R:1 pbc="T T T"
Si      -1.34218197      -1.34840475      -1.37960485       0.00000000
Si       1.37256282       1.36630746      -1.37762207       0.00000000
Si       1.37338882      -1.45215576       1.33632554       0.00000000
Si      -1.39023747       1.33224507       1.45276260       0.00000000
Si       0.30620313       2.42404974       2.78433630       0.00000000
Si      -2.68982109       2.71186146      -0.01541783       0.00000000
Si      -2.68934868      -2.71581993       0.00396556       0.00000000
Si       2.73430649      -2.70400968      -0.05476576       0.00000000
Si      -2.70441693       0.00848709      -2.73808283       0.00000000
Si       0.01140300      -2.70739800      -2.73798027       0.00000000
