10
Lattice="16.28999089631971 0.0 0.0 0.0 16.28999089631971 0.0 0.0 0.0 34.185847837958455" Properties=species:S:1:pos:R:3:initial_magmoms:R:1 pbc="T T T"
Si      -1.21565754       1.38727269       1.47494923       0.00000000
Si       0.98336214       1.56957408      -1.49306774       0.00000000
Si      -1.69644060      -1.09180467      -1.33157370       0.00000000
Si       1.90811516      -1.28575341       1.24214348       0.00000000
Si       3.12758945       0.85955814       1.27526958       0.00000000
Si       2.36201157       2.73632904      -0.01975943       0.00000000
Si       0.38017602       3.42790470       1.19783859       0.00000000
Si      -0.30620313      -2.42404974      -2.78433630       0.00000000
Si       2.42381909       0.29204712      -2.80365132       0.00000000
Si      -2.94663294       2.66704767       0.01281970       0.00000000
