10
Lattice="16.28999089631971 0.0 0.0 0.0 16.28999089631971 0.0 0.0 0.0 34.185847837958455" Properties=species:S:1:pos:R:3:initial_magmoms:R:1 pbc="T T T"
Si      -1.35082352       1.35910359      -1.35765752       0.00000000
Si      -1.35522182      -1.35688154       1.35680287       0.00000000
Si       1.35981034       1.35879896       1.35632427       0.00000000
Si       1.35919295      -1.35474755      -1.36237517       0.00000000
Si       0.00538852       2.69130467      -2.71470653       0.00000000
Si      -2.71258607       0.00104278       2.71405016       0.00000000
Si      -2.71291187       2.71505549       0.00041023       0.00000000
Si       0.00271582      -2.71395257       2.71411853       0.00000000
Si      -2.71256978      -2.71694993      -0.00170929       0.00000000
Si       0.00247633       2.71622837       2.71367412       0.00000000
