10
Lattice="16.28999089631971 0.0 0.0 0.0 16.28999089631971 0.0 0.0 0.0 34.185847837958455" Properties=species:S:1:pos:R:3:initial_magmoms:R:1 pbc="T T T"
Si      -1.34387613      -1.32356250       1.37755711       0.00000000
Si      -1.55382165       1.19187414      -1.32595355       0.00000000
Si       1.36760644       1.39351176       1.36825856       0.00000000
Si       1.25394948      -1.47704688      -1.49325576       0.00000000
Si       0.29316203       2.23280514      -2.53970361       0.00000000
Si       2.19078413       0.45214524      -2.56354141       0.00000000
Si      -2.67045228      -2.69068446      -0.00576374       0.00000000
Si       2.72046977      -2.67488316      -0.00219815       0.00000000
Si       0.00828715      -2.67910227       2.72889025       0.00000000
Si      -2.70415629       0.03130938       2.72892443       0.00000000
