10
Lattice="16.28999089631971 0.0 0.0 0.0 16.28999089631971 0.0 0.0 0.0 34.185847837958455" Properties=species:S:1:pos:R:3:initial_magmoms:R:1 pbc="T T T"
Si       1.44045695      -1.27752696      -1.31058358       0.00000000
Si       1.37864943       1.16675496       1.47330831       0.00000000
Si      -1.29422421       1.44998919      -1.31345519       0.00000000
Si      -0.98336214      -1.56957408       1.49306774       0.00000000
Si      -0.60318612       1.85833062       2.69090633       0.00000000
Si       2.14422731      -0.71001594       2.76833732       0.00000000
Si      -2.19901968      -0.18230139       2.96801697       0.00000000
Si       0.08299755      -2.62731636      -2.66889063       0.00000000
Si      -2.63396268       0.08863389      -2.67302712       0.00000000
Si      -2.67980274      -2.66137875       0.16149404       0.00000000
