10
Lattice="16.28999089631971 0.0 0.0 0.0 16.28999089631971 0.0 0.0 0.0 34.185847837958455" Properties=species:S:1:pos:R:3:initial_magmoms:R:1 pbc="T T T"
Si      -1.36686132       0.89318070       1.68673067       0.00000000
Si      -1.43576802      -0.08788455      -1.88562405       0.00000000
Si       1.59666435       1.70388906      -0.54153832       0.00000000
Si       0.58828077      -2.26883862       0.57080142       0.00000000
Si      -2.36900583      -2.36566638      -1.30972893       0.00000000
Si       1.52651961      -3.03246495      -1.52643314       0.00000000
Si      -0.58738482      -0.07530867       3.77641016       0.00000000
Si       0.33404274       3.45006629      -1.64519485       0.00000000
Si       2.52284859       2.55281472       1.45741188       0.00000000
Si      -3.66150330       0.19331343       1.25215993       0.00000000
