10
Lattice="16.28999089631971 0.0 0.0 0.0 16.28999089631971 0.0 0.0 0.0 34.185847837958455" Properties=species:S:1:pos:R:3:initial_magmoms:R:1 pbc="T T T"
Si      -0.68176908      -1.33447680      -1.88839310       0.00000000
Si       1.60635690       0.82191195       1.67198772       0.00000000
Si      -0.91523736      -1.76681340       1.60215625       0.00000000
Si       1.18866501       1.53204192      -1.82737133       0.00000000
Si      -1.70160453       0.25130583      -3.32430207       0.00000000
Si      -2.27142873      -0.34578783       2.98796583       0.00000000
Si       0.43030035       2.38739724       2.99284415       0.00000000
Si       3.45334058       1.86284295       0.45823766       0.00000000
Si      -2.98991547       2.66894775       0.13411116       0.00000000
Si       1.07499339      -2.43902025      -3.01133046       0.00000000
