10
Lattice="16.28999089631971 0.0 0.0 0.0 16.28999089631971 0.0 0.0 0.0 34.185847837958455" Properties=species:S:1:pos:R:3:initial_magmoms:R:1 pbc="T T T"
Si       1.42441389       0.04655682      -1.90138373       0.00000000
Si      -1.49262012       1.84057682      -0.23188274       0.00000000
Si      -1.48276467      -1.83392820       0.46044944       0.00000000
Si       1.40750487      -0.55319211       1.95738018       0.00000000
Si       1.67669712      -2.28271770      -2.21637231       0.00000000
Si      -3.18606336      -0.64500255       1.64823739       0.00000000
Si       0.09565488       1.42583668      -3.38546059       0.00000000
Si      -0.62812611       3.33326699       1.51706622       0.00000000
Si      -2.32823196      -2.57207697      -1.63237515       0.00000000
Si      -3.73777308       1.06031514       0.07931121       0.00000000
