10
Lattice="16.28999089631971 0.0 0.0 0.0 16.28999089631971 0.0 0.0 0.0 34.185847837958455" Properties=species:S:1:pos:R:3:initial_magmoms:R:1 pbc="T T T"
Si       0.22838580       1.60161651       1.71257519       0.00000000
Si      -2.31212930      -0.49353813      -0.13698277       0.00000000
Si       1.19571858      -1.80662616       0.97990369       0.00000000
Si       0.91603557       0.25262532      -2.20009984       0.00000000
Si       1.14596892      -3.39278509      -0.72774874       0.00000000
Si       0.73557495       0.13551651       3.61512124       0.00000000
Si       1.85070690      -1.98584874      -2.52828416       0.00000000
Si       0.11779299      -2.11652712       3.08124056       0.00000000
Si      -3.42234071       1.59718563      -0.27461507       0.00000000
Si      -2.46366376      -2.02256640      -2.11186612       0.00000000
