10
Lattice="16.28999089631971 0.0 0.0 0.0 16.28999089631971 0.0 0.0 0.0 34.185847837958455" Properties=species:S:1:pos:R:3:initial_magmoms:R:1 pbc="T T T"
Si      -0.18069194       1.59744627       1.66232197       0.00000000
Si       2.17367896       0.92271447      -0.21373004       0.00000000
Si      -1.37142319       0.14807610      -1.94497071       0.00000000
Si      -0.31835221      -2.21811156       0.83649398       0.00000000
Si      -2.66362744      -0.95146632       1.39440733       0.00000000
Si       2.75238121       0.60053085       2.05515176       0.00000000
Si      -3.47335447      -0.19837962      -0.76569505       0.00000000
Si      -1.93258111       0.73228437       2.97218764       0.00000000
Si       2.35653421      -1.67772339       2.40118111       0.00000000
Si       3.26787826      -0.28968507      -1.90466558       0.00000000
