10
Lattice="16.28999089631971 0.0 0.0 0.0 16.28999089631971 0.0 0.0 0.0 34.185847837958455" Properties=species:S:1:pos:R:3:initial_magmoms:R:1 pbc="T T T"
Si      -1.70441848      -0.99023652       1.32602674       0.00000000
Si      -1.52434882       0.60447303      -1.91929713       0.00000000
Si       1.75905447      -1.81521099      -0.22494300       0.00000000
Si       1.19665363       1.90159686       1.23422060       0.00000000
Si      -0.26533921      -2.19892194       2.72431417       0.00000000
Si       0.22754035       1.46963493      -3.22916281       0.00000000
Si       2.44756761       0.53491473       2.71046205       0.00000000
Si       3.65196876      -0.87335577       1.23143103       0.00000000
Si      -3.19026196      -2.40420852      -0.25803492       0.00000000
Si       1.07788324      -3.61279783       1.36328934       0.00000000
