10
Lattice="16.28999089631971 0.0 0.0 0.0 16.28999089631971 0.0 0.0 0.0 34.185847837958455" Properties=species:S:1:pos:R:3:initial_magmoms:R:1 pbc="T T T"
Si       0.18069194      -1.59744627      -1.66232197       0.00000000
Si      -1.04443076       1.94261508      -0.80114579       0.00000000
Si      -1.75188917      -0.86516190       1.30986568       0.00000000
Si       2.35437089      -0.67473180      -1.87605201       0.00000000
Si       2.93307314      -0.99691542       0.39282980       0.00000000
Si       1.10112744       2.88218970      -1.14820071       0.00000000
Si      -0.22754035      -1.46963493       3.22916281       0.00000000
Si      -2.48293550      -2.54891259      -0.26791464       0.00000000
Si       1.80398066       2.98253610       1.37430604       0.00000000
Si      -3.44419211       1.01115288       1.24351091       0.00000000
