10
Lattice="16.28999089631971 0.0 0.0 0.0 16.28999089631971 0.0 0.0 0.0 34.185847837958455" Properties=species:S:1:pos:R:3:initial_magmoms:R:1 pbc="T T T"
Si      -1.35741964       1.35702216      -1.35762333       0.00000000
Si       1.35725022       1.35741312       1.35748659       0.00000000
Si       1.35799956      -1.35786924      -1.35738403       0.00000000
Si      -1.35779919      -1.35946566       1.35635846       0.00000000
Si       0.00034209      -2.71388142       2.71329807       0.00000000
Si      -0.00008145       2.71257822      -2.71524667       0.00000000
Si      -2.71175462      -0.00034209       2.71733201       0.00000000
Si       2.71450044      -0.00114030      -2.71459714       0.00000000
Si      -2.71452067       2.71490769      -0.00013674       0.00000000
Si      -2.71422783      -2.71539639       0.00000000       0.00000000
