10
Lattice="16.28999089631971 0.0 0.0 0.0 16.28999089631971 0.0 0.0 0.0 34.185847837958455" Properties=species:S:1:pos:R:3:initial_magmoms:R:1 pbc="T T T"
Si      -1.35642864      -1.35593073      -1.35635846       0.00000000
Si       1.35814128      -1.35441576       1.35693962       0.00000000
Si       1.35779919       1.35946566      -1.35635846       0.00000000
Si      -1.35395542       1.35912357       1.36097355       0.00000000
Si       0.00778825      -2.71119357       2.68382986       0.00000000
Si       2.71065111       0.00990432       2.71353737       0.00000000
Si       0.00077866      -2.71329498      -2.71377668       0.00000000
Si       2.71441410      -2.71300176       0.00047860       0.00000000
Si      -2.71360027       0.00190593      -2.71391342       0.00000000
Si       0.00350398       2.70891297       2.71928060       0.00000000
