10
Lattice="16.28999089631971 0.0 0.0 0.0 16.28999089631971 0.0 0.0 0.0 34.185847837958455" Properties=species:S:1:pos:R:3:initial_magmoms:R:1 pbc="T T T"
Si      -1.10094499       1.77220539       1.04253220       0.00000000
Si       0.50393115       0.40904190      -2.27958198       0.00000000
Si       2.08003752      -0.70151256       0.93142813       0.00000000
Si      -1.88524822      -1.55074284       0.06344897       0.00000000
Si      -0.92667294       0.88402572       3.21487311       0.00000000
Si      -3.07777463       1.79131356      -0.16200682       0.00000000
Si       2.14500204      -1.30119633      -2.72365639       0.00000000
Si       2.77423587      -2.40531624      -0.56341727       0.00000000
Si      -1.61084968       0.38172357      -3.43667102       0.00000000
Si       3.62623545       1.09076211       0.73554311       0.00000000
