10
Lattice="16.28999089631971 0.0 0.0 0.0 16.28999089631971 0.0 0.0 0.0 34.185847837958455" Properties=species:S:1:pos:R:3:initial_magmoms:R:1 pbc="T T T"
Si       1.62021790      -0.95135229      -1.41854255       0.00000000
Si      -1.54987216      -1.80783162      -0.45456947       0.00000000
Si      -0.70603387       2.22685929      -0.65243727       0.00000000
Si       0.88839779       0.56927034       2.24666099       0.00000000
Si      -2.22893710      -2.25192960       1.75058987       0.00000000
Si      -1.83903595       2.86772418       1.30607105       0.00000000
Si       1.39501516       3.10919085      -1.34883757       0.00000000
Si      -2.98805110      -0.64136988      -2.06742449       0.00000000
Si       3.62667349       0.11218923      -0.79871860       0.00000000
Si       1.50036259      -3.32444691      -0.70757907       0.00000000
