10
Lattice="16.28999089631971 0.0 0.0 0.0 16.28999089631971 0.0 0.0 0.0 34.185847837958455" Properties=species:S:1:pos:R:3:initial_magmoms:R:1 pbc="T T T"
Si      -1.55607034      -0.93155994       1.63895391       0.00000000
Si      -1.72882579      -0.76738932      -1.69743085       0.00000000
Si       1.96291894      -0.93118527      -1.37475045       0.00000000
Si       0.90620618       1.79110179       1.69523753       0.00000000
Si       2.86691620      -2.45270385       0.39166748       0.00000000
Si      -0.31622050      -2.14956324       3.18733097       0.00000000
Si      -2.43292846       1.19909061      -2.82077844       0.00000000
Si      -3.51357448      -1.80235818       0.54698519       0.00000000
Si       2.37272647       0.59326551       3.18629514       0.00000000
Si       1.12805155      -3.48175944       1.71432691       0.00000000
