10
Lattice="16.28999089631971 0.0 0.0 0.0 16.28999089631971 0.0 0.0 0.0 34.185847837958455" Properties=species:S:1:pos:R:3:initial_magmoms:R:1 pbc="T T T"
Si       1.35762163       1.35659862      -1.35779426       0.00000000
Si      -1.35733401       1.35742941       1.35734985       0.00000000
Si       1.35784969      -1.35798831       1.35799938       0.00000000
Si      -1.35981034      -1.35879896      -1.35632427       0.00000000
Si      -2.71063386       0.00030462      -2.71398179       0.00000000
Si       0.00000163       2.71391400       2.71363993       0.00000000
Si       2.71330801      -0.00119406       2.71517830       0.00000000
Si      -2.71465749       2.71484253       0.00027349       0.00000000
Si       2.71524652      -2.71502891       0.00054697       0.00000000
Si       2.71501846       2.71528236       0.00061535       0.00000000
