10
Lattice="16.28999089631971 0.0 0.0 0.0 16.28999089631971 0.0 0.0 0.0 34.185847837958455" Properties=species:S:1:pos:R:3:initial_magmoms:R:1 pbc="T T T"
Si       0.02174063      -2.21052042      -0.74248284       0.00000000
Si      -0.33715739      -0.12308724       2.35981621       0.00000000
Si      -1.83984703       1.14916176      -1.04841217       0.00000000
Si       2.18856313       0.78757263      -0.79639396       0.00000000
Si      -0.86045572       3.14743067      -1.75657240       0.00000000
Si       0.54830674       1.86699920       3.31131144       0.00000000
Si       0.51316921      -2.19950838      -3.11881083       0.00000000
Si       2.09971747      -3.24109098      -0.21964420       0.00000000
Si       0.39461059       3.88922840       0.06519245       0.00000000
Si      -2.23424422       0.36883818      -3.19624182       0.00000000
