10
Lattice="16.290000149 0.0 0.0 0.0 16.290000149 0.0 0.0 0.0 29.1751946751" Properties=species:S:1:pos:R:3:initial_magmoms:R:1 pbc="T T T"
Si      -1.34558659      -1.32887305       1.38178682       0.00000000
Si       1.36243045       1.36777357       1.36331892       0.00000000
Si      -1.38556062       1.33988509      -1.37194894       0.00000000
Si       1.38427534      -1.37119447      -1.35148546       0.00000000
Si       2.68470605       0.11285712      -2.62512217       0.00000000
Si      -2.67693572      -2.68897403       0.00314509       0.00000000
Si      -2.60572660      -0.15009606      -2.77039771       0.00000000
Si      -0.03978018       2.80170084      -2.60550331       0.00000000
Si      -2.69985575       0.05953995       2.71223405       0.00000000
Si       0.02407662      -2.67778280       2.74526037       0.00000000
