10
Lattice="16.290000149 0.0 0.0 0.0 16.290000149 0.0 0.0 0.0 29.1751946751" Properties=species:S:1:pos:R:3:initial_magmoms:R:1 pbc="T T T"
Si      -1.33680628      -1.36216330       1.36887096       0.00000000
Si       1.35164647      -1.34957113      -1.37187600       0.00000000
Si       1.36047565       1.34552143       1.36717880       0.00000000
Si      -1.36849033       1.34498386      -1.36335685       0.00000000
Si      -2.69672807      -2.70624143      -0.00825658       0.00000000
Si       2.71451675       2.69495246      -0.00402618       0.00000000
Si      -0.00459378       2.73603585       2.67947905       0.00000000
Si       2.72391608      -2.69850368      -0.03495188       0.00000000
Si      -2.75858121       0.00171045       2.66871341       0.00000000
Si      -0.01780497       2.71101440      -2.71766938       0.00000000
