10
Lattice="16.290000149 0.0 0.0 0.0 16.290000149 0.0 0.0 0.0 29.1751946751" Properties=species:S:1:pos:R:3:initial_magmoms:R:1 pbc="T T T"
Si      -0.68981635       2.04844797       0.76538206       0.00000000
Si       2.05705235      -0.60652883       0.89401549       0.00000000
Si      -1.24752079      -1.78273200       0.84535127       0.00000000
Si      -0.64233100      -0.66831029      -2.14910319       0.00000000
Si      -0.70951096      -2.81287903      -1.16770799       0.00000000
H        0.68883895       2.30685624      -2.14484361       0.00000000
Si      -1.30370500       1.53350478       2.94727817       0.00000000
Si      -3.53455536       0.78502814      -0.77524327       0.00000000
Si       1.07818624       3.52901350       0.43109268       0.00000000
Si       1.53432253      -1.86791242       2.82132885       0.00000000
