10
Lattice="16.290000149 0.0 0.0 0.0 16.290000149 0.0 0.0 0.0 29.1751946751" Properties=species:S:1:pos:R:3:initial_magmoms:R:1 pbc="T T T"
H       -1.03487113      -1.10669374       0.20507244       0.00000000
Si       1.47950180      -1.07587306      -1.43565298       0.00000000
Si       1.16100134      -0.16278597       2.01726049       0.00000000
Si      -1.25481871       1.64234153      -1.15239101       0.00000000
H       -1.57066552       0.43671861       2.00109743       0.00000000
Si      -0.00651600      -2.21700386       2.60175634       0.00000000
Si      -2.53390952      -0.02075346      -2.32470869       0.00000000
Si      -2.01502415      -0.84541843       2.67396494       0.00000000
Si       0.06108750      -2.51377508      -2.60805818       0.00000000
Si       3.04258107      -2.15120855      -0.07182933       0.00000000
