10
Lattice="16.290000149 0.0 0.0 0.0 16.290000149 0.0 0.0 0.0 29.1751946751" Properties=species:S:1:pos:R:3:initial_magmoms:R:1 pbc="T T T"
Si      -1.25833735      -1.36876726       1.42594931       0.00000000
Si      -1.45181368       1.41713227      -1.21727665       0.00000000
Si       0.95772169      -1.27006615      -1.75450868       0.00000000
Si       1.38899944       1.37880190       1.34163883       0.00000000
Si       2.35108685       0.16529463      -2.93143604       0.00000000
Si      -2.68543910       0.00674406       2.71967372       0.00000000
Si      -2.06832503      -3.22814046       0.24502466       0.00000000
Si       2.73742049       0.01640403       2.71845128       0.00000000
Si       0.02549385       2.72644103       2.73248455       0.00000000
Si      -0.18715581       2.90061372      -2.54425203       0.00000000
