10
Lattice="16.290000149 0.0 0.0 0.0 16.290000149 0.0 0.0 0.0 29.1751946751" Properties=species:S:1:pos:R:3:initial_magmoms:R:1 pbc="T T T"
Si       1.33386431      -1.34677576       1.37855712       0.00000000
Si      -1.27197615       1.36133902       1.42211569       0.00000000
Si      -1.37934925      -1.36345672      -1.33097238       0.00000000
Si       1.34257946       1.36989127      -1.36251077       0.00000000
Si       2.64965649       0.12269628       2.65578880       0.00000000
Si       0.01764859      -2.69680138      -2.68245492       0.00000000
Si      -2.66261030       2.71995761       0.07343396       0.00000000
Si      -2.68424342       0.01729998      -2.70675786       0.00000000
Si      -0.08162105      -2.64908797       2.76070280       0.00000000
Si       2.71988268       0.02515176      -2.72099536       0.00000000
