10
Lattice="16.290000149 0.0 0.0 0.0 16.290000149 0.0 0.0 0.0 29.1751946751" Properties=species:S:1:pos:R:3:initial_magmoms:R:1 pbc="T T T"
Si      -0.91313596       0.89446762      -0.80552712       0.00000000
Si       0.90710866      -1.56090781       1.49759192       0.00000000
H       -2.01336257      -0.34259499       1.41216695       0.00000000
Si       1.93170080       0.58847626       1.89078602       0.00000000
Si       1.88019182      -1.95917877      -0.65661693       0.00000000
Si      -1.40113549      -1.64811307       1.85420032       0.00000000
Si      -2.22892814      -0.57500443      -2.08275880       0.00000000
Si       0.43241805       2.20297817      -2.19843844       0.00000000
Si      -2.04566564       2.32803650       0.66035136       0.00000000
Si       3.05194782       2.02676924       0.33959927       0.00000000
