10
Lattice="16.290000149 0.0 0.0 0.0 16.290000149 0.0 0.0 0.0 29.1751946751" Properties=species:S:1:pos:R:3:initial_magmoms:R:1 pbc="T T T"
Si       1.36132273      -1.36216981      -1.32977620       0.00000000
Si      -1.32304123       1.29562516      -1.44458059       0.00000000
Si       1.41898933       1.37279089       1.30138873       0.00000000
Si      -1.35687556      -1.37904625       1.37012549       0.00000000
H       -0.58810159       1.16712964       2.80738311       0.00000000
Si      -2.68708439       2.67105503      -0.18447476       0.00000000
Si       2.68814324      -0.01975977       2.67641566       0.00000000
Si      -2.82193302       0.00641826       2.53681235       0.00000000
Si      -0.00843822       2.59180418       2.78354697       0.00000000
Si       2.70445172       0.01622484      -2.68677285       0.00000000
