10
Lattice="16.290000149 0.0 0.0 0.0 16.290000149 0.0 0.0 0.0 29.1751946751" Properties=species:S:1:pos:R:3:initial_magmoms:R:1 pbc="T T T"
Si       1.41920110      -1.33048576      -1.30208894       0.00000000
Si       1.37336104       1.32660874       1.36350272       0.00000000
Si      -1.35099487      -1.37499004       1.34789399       0.00000000
Si      -1.35107632       1.31890357      -1.40822830       0.00000000
Si       0.10718820      -2.69055416      -2.64754097       0.00000000
Si       0.00477297       2.70555725       2.68656863       0.00000000
Si       2.75362905       2.64442088       0.00029175       0.00000000
Si      -2.71982729      -0.01119123       2.68513904       0.00000000
Si      -2.71370225       2.69241122      -0.05864214       0.00000000
Si       0.01622484       2.66910023      -2.75863719       0.00000000
