10
Lattice="16.290000149 0.0 0.0 0.0 16.290000149 0.0 0.0 0.0 29.1751946751" Properties=species:S:1:pos:R:3:initial_magmoms:R:1 pbc="T T T"
Si      -1.31470401       0.26772615       1.91152958       0.00000000
Si       2.21089511      -0.07706799       0.80733599       0.00000000
Si      -1.29098903      -0.15610707      -2.02575047       0.00000000
Si      -0.54253845       2.38249397       0.73611934       0.00000000
Si      -0.51865731      -1.99340732       1.69712107       0.00000000
H        2.05747589       0.71891029       2.08313808       0.00000000
H       -2.42817439       0.81003655      -1.73577821       0.00000000
H        0.22252140      -1.62357544      -2.65949405       0.00000000
H        0.65415754       2.74836738       1.62637123       0.00000000
H        0.76263265      -1.95416471       2.51741085       0.00000000
