10
Lattice="16.290000149 0.0 0.0 0.0 16.290000149 0.0 0.0 0.0 29.1751946751" Properties=species:S:1:pos:R:3:initial_magmoms:R:1 pbc="T T T"
H        1.29665143       0.54887527       0.92292811       0.00000000
Si       1.22914567      -1.85204270      -0.66551537       0.00000000
Si      -1.02364732       1.33652935      -1.61788125       0.00000000
Si      -1.78644287      -0.58748257       1.44239245       0.00000000
H        0.95783572       1.24743934      -2.67874967       0.00000000
Si      -2.09438903       2.44582949       0.25020647       0.00000000
Si      -1.79276339      -0.70582942      -2.62626350       0.00000000
Si       2.47754612       1.08708058       1.97501480       0.00000000
Si      -0.30454155      -2.57469968      -2.27554848       0.00000000
Si      -2.85767328      -2.34766595       0.37910248       0.00000000
