10
Lattice="16.290000149 0.0 0.0 0.0 16.290000149 0.0 0.0 0.0 29.1751946751" Properties=species:S:1:pos:R:3:initial_magmoms:R:1 pbc="T T T"
Si       1.37756386       1.34032492       1.33701165       0.00000000
Si       1.37515294      -1.36769212      -1.31559705       0.00000000
Si      -1.35521398      -1.35588187       1.35527532       0.00000000
Si      -1.35179308       1.37202526      -1.34617266       0.00000000
Si      -0.03508866       2.67116906       2.63603719       0.00000000
Si      -0.00265527      -2.70414002      -2.66124456       0.00000000
Si       2.73095336      -0.01505196      -2.67656153       0.00000000
Si      -2.71793765       0.01715337      -2.69403748       0.00000000
Si       2.72228708       2.69250896      -0.02652025       0.00000000
Si       0.01055592      -2.67911858       2.73590388       0.00000000
