10
Lattice="16.290000149 0.0 0.0 0.0 16.290000149 0.0 0.0 0.0 29.1751946751" Properties=species:S:1:pos:R:3:initial_magmoms:R:1 pbc="T T T"
Si      -1.82918783      -1.29565774       0.63412286       0.00000000
Si       1.81801289      -1.46064286      -0.16565676       0.00000000
Si      -1.02714967       0.82621252      -1.95561330       0.00000000
Si       0.65371771       1.77274298       1.58558431       0.00000000
H       -0.00340461      -1.13959954       3.11955769       0.00000000
Si      -2.55640601       2.09116361      -0.74417169       0.00000000
Si       3.42365304       0.24086394      -0.09715340       0.00000000
Si      -3.47550411       0.36365796       0.53717368       0.00000000
Si      -1.35972631      -1.71748730       2.84583601       0.00000000
Si       2.88564321       1.27101097       1.91590586       0.00000000
