10
Lattice="16.290000149 0.0 0.0 0.0 16.290000149 0.0 0.0 0.0 29.1751946751" Properties=species:S:1:pos:R:3:initial_magmoms:R:1 pbc="T T T"
Si      -0.22880934       2.13560273       0.90734855       0.00000000
Si      -1.81209962      -0.75240253      -1.38978957       0.00000000
Si       0.34520139      -1.94922884       1.36784983       0.00000000
Si       2.12550293       0.59010526      -1.00167196       0.00000000
H        2.21309426      -0.23967477       1.56326528       0.00000000
H       -1.35782038       2.19699974       1.91231731       0.00000000
H        2.86746357      -0.65770876       1.60221417       0.00000000
H       -1.04987422      -1.10908837       2.99658425       0.00000000
Si       1.95281264      -2.74035270      -0.15500781       0.00000000
H        1.06717420      -1.86175154       2.68922357       0.00000000
