10
Lattice="16.290000149 0.0 0.0 0.0 16.290000149 0.0 0.0 0.0 29.1751946751" Properties=species:S:1:pos:R:3:initial_magmoms:R:1 pbc="T T T"
Si       1.13718536      -0.96614362      -0.28997226       0.00000000
Si      -1.88949015       1.64576243      -0.26368541       0.00000000
H       -1.15267715      -1.80677279       1.92567955       0.00000000
Si      -1.53102870       1.40375818       2.09766732       0.00000000
Si      -0.18048913      -2.66885588      -1.42961371       0.00000000
Si       2.42817439      -0.81003655       1.73577821       0.00000000
Si       2.61839272       0.23701950      -1.67553143       0.00000000
Si      -0.24196840       2.69562035      -1.69475788       0.00000000
Si      -1.08274418      -0.73107892       2.98681055       0.00000000
Si      -2.95531228      -0.05165559      -1.64364294       0.00000000
