10
Lattice="16.290000149 0.0 0.0 0.0 16.290000149 0.0 0.0 0.0 29.1751946751" Properties=species:S:1:pos:R:3:initial_magmoms:R:1 pbc="T T T"
Si      -0.83370592       1.24442569      -1.71348836       0.00000000
Si      -1.83234809      -1.02198574       0.94234128       0.00000000
Si       1.03948120       1.85386229       0.95211789       0.00000000
Si       1.74609254      -1.54236979      -0.45131605       0.00000000
H       -1.01261899       2.63186129      -1.10276401       0.00000000
Si      -0.42588576      -2.38589858       2.19633783       0.00000000
Si       1.49747455      -1.02853432      -2.74961622       0.00000000
Si       2.45628767       0.51067701       2.20665418       0.00000000
Si       1.06191253       1.26100402      -3.05219217       0.00000000
Si       0.99595432      -0.92603764       3.42157931       0.00000000
