10
Lattice="16.290000149 0.0 0.0 0.0 16.290000149 0.0 0.0 0.0 29.1751946751" Properties=species:S:1:pos:R:3:initial_magmoms:R:1 pbc="T T T"
Si      -0.51703157      -0.91017118      -2.09343692       0.00000000
Si       2.05757363       1.00887229       0.72342813       0.00000000
Si      -1.41438578       1.94935916       0.00484308       0.00000000
Si      -0.68061575      -1.76311559       1.50754066       0.00000000
H        1.45182997       1.57047004      -2.37859527       0.00000000
Si      -1.94354363      -0.33581835       2.83486001       0.00000000
H        2.85514833      -0.45898704      -1.92182842       0.00000000
Si       0.25513398       1.20459664      -3.26884716       0.00000000
Si       1.05010228       2.24917661       2.56654188       0.00000000
Si      -3.08390880       1.16509339       1.45161181       0.00000000
