10
Lattice="16.290000149 0.0 0.0 0.0 16.290000149 0.0 0.0 0.0 29.1751946751" Properties=species:S:1:pos:R:3:initial_magmoms:R:1 pbc="T T T"
Si      -1.34783512      -1.35405739       1.35655903       0.00000000
Si      -1.36909357       1.35671266      -1.34004587       0.00000000
Si       1.33144148      -1.35008263      -1.38929360       0.00000000
Si       1.31474097       1.36666585       1.39314472       0.00000000
Si       0.02947983       2.69127092      -2.67449010       0.00000000
Si       2.68508022      -2.70816365      -0.02984622       0.00000000
Si      -2.69283527       0.01096317       2.70602848       0.00000000
Si       2.69001609       2.71507061       0.04367527       0.00000000
Si      -2.71917620      -2.70233183       0.00253824       0.00000000
Si       2.71081842       0.01790271       2.71670660       0.00000000
