10
Lattice="16.290000149 0.0 0.0 0.0 16.290000149 0.0 0.0 0.0 29.1751946751" Properties=species:S:1:pos:R:3:initial_magmoms:R:1 pbc="T T T"
Si      -1.32727663       1.35866746       1.36656612       0.00000000
Si       1.37723806      -1.34047153       1.35830954       0.00000000
Si       1.41113755       1.40427946      -1.25773097       0.00000000
Si      -1.41959206      -1.42920316      -1.23568620       0.00000000
Si       0.07843635      -2.66495117      -2.51558740       0.00000000
Si       2.66924684       0.00320913      -2.62228692       0.00000000
Si      -2.66880701      -0.05874174      -2.64921562       0.00000000
Si       0.05129721       2.72225450       2.67171845       0.00000000
Si      -2.64417653       2.75012670       0.02471139       0.00000000
Si       0.09632277       2.66804138      -2.73060567       0.00000000
