10
Lattice="16.290000149 0.0 0.0 0.0 16.290000149 0.0 0.0 0.0 29.1751946751" Properties=species:S:1:pos:R:3:initial_magmoms:R:1 pbc="T T T"
Si      -1.29728674      -1.41277454       1.30308090       0.00000000
Si       1.27084807      -1.46250791      -1.33919979       0.00000000
Si      -1.42869817       1.64443495      -0.91166648       0.00000000
Si       1.18895824       1.15746332       1.69656675       0.00000000
Si      -0.79884532       2.05204334       2.68140462       0.00000000
Si      -2.32011956       0.20920449       2.61789022       0.00000000
H       -0.89381602      -3.21640335      -1.30103863       0.00000000
Si      -0.08518041       2.66523152      -2.54679027       0.00000000
Si       2.62661673       2.58383039       0.35730861       0.00000000
Si       0.23982138      -2.41187282       2.80356116       0.00000000
