10
Lattice="16.290000149 0.0 0.0 0.0 16.290000149 0.0 0.0 0.0 29.1751946751" Properties=species:S:1:pos:R:3:initial_magmoms:R:1 pbc="T T T"
Si      -1.43399242       1.34659331      -1.26168129       0.00000000
Si      -1.37953495      -1.34397388       1.33502773       0.00000000
Si       1.34644996       1.38841626       1.33917061       0.00000000
Si       1.35410626      -1.32919885      -1.40122625       0.00000000
Si      -0.10039527       2.68644908      -2.59078646       0.00000000
Si      -0.01032786      -2.69193881       2.67653236       0.00000000
Si       2.70019784      -2.67424787      -0.03585631       0.00000000
Si       2.70731657       0.03590316       2.69106161       0.00000000
Si      -2.72921033       0.03303612       2.68426379       0.00000000
Si      -0.06773382      -2.78905980      -2.62646773       0.00000000
