10
Lattice="16.290000149 0.0 0.0 0.0 16.290000149 0.0 0.0 0.0 29.1751946751" Properties=species:S:1:pos:R:3:initial_magmoms:R:1 pbc="T T T"
Si       1.34351776       1.02079657      -1.63512379       0.00000000
Si       1.42869817      -1.64443495       0.91166648       0.00000000
Si      -1.84208951      -1.16929132      -1.00464783       0.00000000
Si      -0.11010411       1.73135009       1.80501094       0.00000000
H       -2.25963479       1.47815461       0.49069760       0.00000000
Si       2.76996792       2.29174238      -0.23065909       0.00000000
Si       0.62985286       0.40760838       3.59307110       0.00000000
Si       2.61765641      -0.48697164       2.60823323       0.00000000
Si      -2.90524008       2.32215581      -0.58612966       0.00000000
Si       0.13141143      -3.05720949       2.21474738       0.00000000
