10
Lattice="16.290000149 0.0 0.0 0.0 16.290000149 0.0 0.0 0.0 29.1751946751" Properties=species:S:1:pos:R:3:initial_magmoms:R:1 pbc="T T T"
Si      -1.34646625      -1.29081961       1.37120497       0.00000000
Si       1.25237521       1.32346803       1.46792074       0.00000000
Si       1.36241416      -1.36778986      -1.34815657       0.00000000
Si      -1.42084639       1.37033273      -1.29502854       0.00000000
Si       2.41513913       2.76143196      -0.03617724       0.00000000
Si       2.70659981       0.01151703      -2.66028178       0.00000000
Si      -0.04254948      -2.69661404      -2.70270251       0.00000000
Si      -0.11435580       2.71562447      -2.72035350       0.00000000
Si      -2.75819025      -2.68674230       0.07314221       0.00000000
Si      -2.75913507       0.02661004      -2.68694790       0.00000000
