10
Lattice="16.290000149 0.0 0.0 0.0 16.290000149 0.0 0.0 0.0 29.1751946751" Properties=species:S:1:pos:R:3:initial_magmoms:R:1 pbc="T T T"
Si       1.83234809       1.02198574      -0.94234128       0.00000000
Si       1.40646232      -1.36391284       1.25399655       0.00000000
Si      -1.32033709       1.48899787       1.20856202       0.00000000
Si      -1.30401451      -1.18423414      -1.55343966       0.00000000
Si       0.99864217       2.26641143      -2.65582964       0.00000000
Si      -2.67019166       0.09381411       2.51906216       0.00000000
Si      -2.62531271      -2.58743846      -0.21038525       0.00000000
Si       0.05092254      -2.70448211       2.56918515       0.00000000
Si       2.74440891      -2.51820596      -0.30281226       0.00000000
Si       2.82830241       0.09594810       2.47923802       0.00000000
