10
Lattice="16.290000149 0.0 0.0 0.0 16.290000149 0.0 0.0 0.0 29.1751946751" Properties=species:S:1:pos:R:3:initial_magmoms:R:1 pbc="T T T"
Si       1.36321237       1.35321031      -1.32881342       0.00000000
Si       1.40217805      -1.44226774       1.19449082       0.00000000
Si      -1.37298637      -1.36837630      -1.33424000       0.00000000
Si      -1.29832930       1.34931700       1.43492360       0.00000000
Si       0.02880072      -2.76478770       2.48321752       0.00000000
Si       2.67084326       2.66455207       0.11967665       0.00000000
Si      -0.00905724       2.70214287      -2.66573754       0.00000000
Si       2.71722089      -0.02845863      -2.66848001       0.00000000
Si      -2.69750999       2.68955070       0.07500943       0.00000000
Si      -2.64251495      -0.02998989       2.74704880       0.00000000
