10
Lattice="16.290000149 0.0 0.0 0.0 16.290000149 0.0 0.0 0.0 29.1751946751" Properties=species:S:1:pos:R:3:initial_magmoms:R:1 pbc="T T T"
Si      -1.36096435      -1.35394336      -1.35340811       0.00000000
Si      -1.36603054       1.35487189       1.35221192       0.00000000
Si       1.35417142       1.34425081      -1.37625228       0.00000000
Si       1.34804638      -1.35935164       1.36752890       0.00000000
Si       2.69011433       2.69521310       0.01706749       0.00000000
Si       0.01773981      -2.71324613      -2.68934027       0.00000000
Si      -2.69204959      -2.71199180       0.02929190       0.00000000
Si      -0.02261052       2.69161301      -2.73534955       0.00000000
Si       2.71419095      -0.00447975       2.71539372       0.00000000
Si      -0.02024847       2.71552673       2.71600640       0.00000000
