10
Lattice="16.290000149 0.0 0.0 0.0 16.290000149 0.0 0.0 0.0 29.1751946751" Properties=species:S:1:pos:R:3:initial_magmoms:R:1 pbc="T T T"
Si       1.36920709      -1.34796493       1.34150463       0.00000000
Si       1.37953495       1.34397388      -1.33502773       0.00000000
Si      -1.34967538       1.37701000       1.34923605       0.00000000
Si      -1.37945350      -1.34413678      -1.35760933       0.00000000
Si      -0.05445747       2.69056720      -2.59670903       0.00000000
Si      -0.00592956      -2.69052158       2.68388451       0.00000000
Si      -2.72930807       0.02212182       2.67933318       0.00000000
Si       2.72653877       0.01656693       2.69765520       0.00000000
Si       2.72416043      -2.70096347      -0.02456551       0.00000000
Si      -0.04373865      -2.78565519      -2.64630686       0.00000000
