10
Lattice="16.290000149 0.0 0.0 0.0 16.290000149 0.0 0.0 0.0 29.1751946751" Properties=species:S:1:pos:R:3:initial_magmoms:R:1 pbc="T T T"
Si      -1.34793235      -1.36171369      -1.35078234       0.00000000
Si       1.34338744      -1.38271150       1.34348854       0.00000000
Si      -1.38960217       1.34988715       1.33313135       0.00000000
Si       1.34917039       1.34799751      -1.37701084       0.00000000
Si       2.71189406      -0.02503773       2.67230196       0.00000000
Si      -0.03704346       2.73606843       2.65456344       0.00000000
Si      -2.69092558      -0.00464265      -2.71524784       0.00000000
Si       2.71531496       2.70286940      -0.02914602       0.00000000
Si       0.01062108      -2.71751411      -2.70509488       0.00000000
Si      -0.03269403      -2.71865441       2.70474477       0.00000000
