10
Lattice="16.290000149 0.0 0.0 0.0 16.290000149 0.0 0.0 0.0 29.1751946751" Properties=species:S:1:pos:R:3:initial_magmoms:R:1 pbc="T T T"
Si       1.34646625       1.29081961      -1.37120497       0.00000000
Si      -1.52925634       1.26495109       1.21144161       0.00000000
Si       1.02714967      -0.82621252       1.95561330       0.00000000
Si      -1.41172399      -1.39592269      -1.29806276       0.00000000
Si      -0.80203816      -2.12187026       2.58973616       0.00000000
Si      -2.44835444      -0.46255455       2.49278698       0.00000000
Si       2.59884146       2.61428764       0.09671577       0.00000000
Si      -0.07438014       2.66115234      -2.66623352       0.00000000
Si       2.70888041      -0.07697025      -2.71936155       0.00000000
Si      -2.74380292      -0.03041343      -2.68621852       0.00000000
