10
Lattice="16.290000149 0.0 0.0 0.0 16.290000149 0.0 0.0 0.0 29.1751946751" Properties=species:S:1:pos:R:3:initial_magmoms:R:1 pbc="T T T"
H        0.91313596      -0.89446762       0.80552712       0.00000000
Si       1.34555401       1.30851055      -1.39291132       0.00000000
Si      -1.13252968       1.43356888       1.46587848       0.00000000
Si      -1.31579218      -1.46947204      -1.27723167       0.00000000
H       -1.10022661      -1.23706261       2.21769407       0.00000000
Si      -2.55967379       2.64627794       0.07897725       0.00000000
Si      -0.48799953      -2.54258069       2.65972745       0.00000000
Si      -2.64965649      -0.12269628      -2.65578880       0.00000000
Si       0.00397476       2.67843440      -2.69718840       0.00000000
Si       2.72891712       2.65465100      -0.09429423       0.00000000
