10
Lattice="16.290000149 0.0 0.0 0.0 16.290000149 0.0 0.0 0.0 29.1751946751" Properties=species:S:1:pos:R:3:initial_magmoms:R:1 pbc="T T T"
Si       0.97238269      -1.45411057      -1.51165436       0.00000000
Si      -1.68959882       0.92932822      -1.31116242       0.00000000
Si      -1.26465787      -1.48348144       1.32697538       0.00000000
Si       1.50395797       1.28570455       1.28551743       0.00000000
H       -1.15587325       1.18729666      -2.69780108       0.00000000
Si      -0.92694988      -2.95393089      -1.82975151       0.00000000
Si      -2.64321542      -2.51191802      -0.30520171       0.00000000
Si      -2.57178377      -0.05841594       2.62919327       0.00000000
H        0.11443725       2.94780585      -2.26621242       0.00000000
Si       0.16239501       2.64108143       2.62976977       0.00000000
