10
Lattice="16.290000149 0.0 0.0 0.0 16.290000149 0.0 0.0 0.0 29.1751946751" Properties=species:S:1:pos:R:3:initial_magmoms:R:1 pbc="T T T"
Si       1.38191329      -1.35641944      -1.32457718       0.00000000
Si       1.33703434       1.32483313       1.40487023       0.00000000
Si      -1.35324289      -1.39779604       1.32023299       0.00000000
Si      -1.32901966       1.39571092      -1.36910436       0.00000000
Si      -0.03096729      -2.65271249      -2.66820809       0.00000000
Si      -2.65873979       2.71018361       0.05046725       0.00000000
Si       2.70321149       0.04678488      -2.66763159       0.00000000
Si      -2.70541064      -0.02855637       2.67845500       0.00000000
Si      -2.75545353       0.03613122      -2.64858923       0.00000000
Si       2.68688891       2.72001689       0.09437008       0.00000000
