10
Lattice="16.290000149 0.0 0.0 0.0 16.290000149 0.0 0.0 0.0 29.1751946751" Properties=species:S:1:pos:R:3:initial_magmoms:R:1 pbc="T T T"
Si      -1.56585997       1.28120851      -1.12447035       0.00000000
Si      -1.39336516      -1.43536078       1.17692735       0.00000000
Si       1.56475225       1.12392856       1.46634528       0.00000000
Si       1.07074171      -1.10930014      -1.86808772       0.00000000
Si       2.09438903      -2.44582949      -0.25020647       0.00000000
Si       0.30794616      -3.03331206       1.19218598       0.00000000
Si       0.04965192       2.31124151      -2.52117445       0.00000000
Si       1.82964395       0.76207879      -3.15226308       0.00000000
Si      -2.53824266       2.73531909       0.38718401       0.00000000
Si      -2.98770006      -2.24870420      -0.38397474       0.00000000
