10
Lattice="16.290000149 0.0 0.0 0.0 16.290000149 0.0 0.0 0.0 29.1751946751" Properties=species:S:1:pos:R:3:initial_magmoms:R:1 pbc="T T T"
Si       2.24567426      -0.50634207       0.27748528       0.00000000
Si      -1.57358143      -1.68764890      -0.44165410       0.00000000
Si      -0.73024813       0.63317602       2.18000293       0.00000000
Si      -0.07247421       1.46085463      -1.93323592       0.00000000
H        0.26513604      -1.10410200      -2.81695257       0.00000000
Si      -2.82610326      -0.58135753      -2.04631898       0.00000000
Si      -1.30161988       3.31289733      -1.26772056       0.00000000
Si       1.30934134      -2.21976339      -2.83918407       0.00000000
Si       3.17762354      -1.32120209      -1.71745618       0.00000000
H       -0.00496845       3.86177260      -0.34479245       0.00000000
