10
Lattice="16.290000149 0.0 0.0 0.0 16.290000149 0.0 0.0 0.0 29.1751946751" Properties=species:S:1:pos:R:3:initial_magmoms:R:1 pbc="T T T"
Si      -0.10293651       2.29399529       0.23882814       0.00000000
Si       1.60607998       0.06209748      -1.80171415       0.00000000
Si      -2.11737422      -0.98411149      -0.66805361       0.00000000
Si       0.27658791      -0.87750973       2.24937833       0.00000000
H        2.27403515      -1.39755169       0.85410382       0.00000000
H        0.96749569      -3.00407151       0.38543350       0.00000000
Si      -1.85165174       1.96627469       1.72991399       0.00000000
Si       3.06258519      -1.16144443      -0.45104851       0.00000000
Si      -1.91883170      -0.17829405       2.71130919       0.00000000
Si      -0.98943832      -2.40471353      -2.13034354       0.00000000
