10
Lattice="16.290000149 0.0 0.0 0.0 16.290000149 0.0 0.0 0.0 29.1751946751" Properties=species:S:1:pos:R:3:initial_magmoms:R:1 pbc="T T T"
H        1.22258080      -1.96046894       0.22330694       0.00000000
H       -1.97825762      -0.62103997      -1.08458786       0.00000000
Si       1.87761800       0.71019514       1.27198014       0.00000000
Si      -0.75890224      -1.87137893       1.28417537       0.00000000
Si       0.63232894      -0.32148315      -2.33136063       0.00000000
Si      -1.77999203       1.54916272       0.63108864       0.00000000
H       -2.63262692      -0.20300598      -1.12353675       0.00000000
H        2.32197662       1.99233218       0.59911262       0.00000000
H       -0.45763497       2.20894031      -2.16856304       0.00000000
H        2.85777102       0.44891982      -1.19691236       0.00000000
