10
Lattice="16.290000149 0.0 0.0 0.0 16.290000149 0.0 0.0 0.0 29.1751946751" Properties=species:S:1:pos:R:3:initial_magmoms:R:1 pbc="T T T"
Si      -1.33386431       1.34677576      -1.37855712       0.00000000
Si       1.31579218       1.46947204       1.27723167       0.00000000
Si      -1.41548535      -1.30231221       1.38214567       0.00000000
Si       1.43589835      -1.33730964      -1.33680742       0.00000000
H        2.22892814       0.57500443       2.08275880       0.00000000
H        0.21556557       0.23240943       3.49492575       0.00000000
Si      -0.01897785      -2.73351090       2.54086770       0.00000000
Si      -2.60584046       2.70811478       0.04355857       0.00000000
Si      -2.65466729      -2.68032812      -0.05397411       0.00000000
Si       0.09760968      -2.68103233      -2.72872678       0.00000000
