10
Lattice="16.290000149 0.0 0.0 0.0 16.290000149 0.0 0.0 0.0 29.1751946751" Properties=species:S:1:pos:R:3:initial_magmoms:R:1 pbc="T T T"
Si      -1.33011761       1.35785296      -1.36534076       0.00000000
Si       1.31105179       1.43123941       1.32111117       0.00000000
Si      -1.34257946      -1.36989127       1.36251077       0.00000000
Si       1.37730322      -1.34473951      -1.35848459       0.00000000
Si       2.65263104       0.06131556       2.62538824       0.00000000
Si      -2.64995948       2.69550632       0.04090362       0.00000000
Si       2.68400558       2.68488524      -0.11206192       0.00000000
Si      -2.67260258      -0.00390960      -2.71871969       0.00000000
Si      -2.61455561      -0.00855225       2.78462646       0.00000000
Si       0.02200779      -2.71300178      -2.69593386       0.00000000
