10
Lattice="16.290000149 0.0 0.0 0.0 16.290000149 0.0 0.0 0.0 29.1751946751" Properties=species:S:1:pos:R:3:initial_magmoms:R:1 pbc="T T T"
Si      -1.30895038      -1.28954899       1.47058152       0.00000000
Si      -1.34842105       1.36239787      -1.37681245       0.00000000
Si       1.43154892      -1.37163430      -1.28473553       0.00000000
Si       1.37192752       1.40615281       1.31242279       0.00000000
Si      -2.62096328      -2.64961739       0.12512949       0.00000000
Si       2.64857483       0.06287940      -2.72746641       0.00000000
Si       2.74636371      -2.63539622       0.18813916       0.00000000
Si      -2.71192664       2.71003700       0.01403327       0.00000000
Si       2.71117730       0.06939540       2.73421755       0.00000000
Si      -2.73742049      -0.01640403      -2.71845128       0.00000000
