10
Lattice="16.290000149 0.0 0.0 0.0 16.290000149 0.0 0.0 0.0 29.1751946751" Properties=species:S:1:pos:R:3:initial_magmoms:R:1 pbc="T T T"
Si       0.84442474      -1.84534751       1.12420778       0.00000000
Si      -1.72157609       0.75818548       1.37905310       0.00000000
Si      -1.07403229      -0.08786826      -2.10005969       0.00000000
Si       1.79804135       1.59589873       0.11824706       0.00000000
H        2.33176691       1.85386718      -1.26839159       0.00000000
H       -1.15644340      -3.02212083      -1.06317327       0.00000000
H        1.65198521       0.92699875      -2.88452232       0.00000000
Si       2.56069028      -2.28736037      -0.40034202       0.00000000
Si      -0.36318555       2.10365804       2.72076195       0.00000000
Si      -0.62594326       2.12136527      -2.71308888       0.00000000
