10
Lattice="16.290000149 0.0 0.0 0.0 16.290000149 0.0 0.0 0.0 29.1751946751" Properties=species:S:1:pos:R:3:initial_magmoms:R:1 pbc="T T T"
Si      -1.34126974      -1.34892604       1.37155508       0.00000000
Si       1.32186835      -1.37375200      -1.37313054       0.00000000
Si      -1.36156708       1.32727663      -1.38824329       0.00000000
Si       1.34350147       1.32890563       1.40706129       0.00000000
Si       2.69873174       2.67434561       0.01202018       0.00000000
Si       2.62676252      -2.75450871       0.00265494       0.00000000
Si      -2.72023454       2.69816159      -0.06083028       0.00000000
Si      -2.73458604       0.00395847       2.68525574       0.00000000
Si       2.67608864      -0.02507031      -2.74760313       0.00000000
Si      -0.00895950       2.69434973      -2.74074696       0.00000000
