10
Lattice="16.290000149 0.0 0.0 0.0 16.290000149 0.0 0.0 0.0 29.1751946751" Properties=species:S:1:pos:R:3:initial_magmoms:R:1 pbc="T T T"
H        1.07799076      -1.71475058      -0.78953416       0.00000000
Si      -0.24861798       0.51383547      -2.29830018       0.00000000
Si       1.94206124       0.85206475       1.06190327       0.00000000
Si      -1.74609254       1.54236979       0.45131605       0.00000000
Si      -0.83403172      -1.99782191       1.09084507       0.00000000
Si       0.71019514       2.05304680       2.65797023       0.00000000
Si      -2.17197830      -0.84352879       2.64765388       0.00000000
Si       1.98021242      -2.45645057      -1.76675730       0.00000000
Si      -2.14589801      -0.78755635      -2.93081840       0.00000000
Si      -0.70661134       3.39623208       1.40343394       0.00000000
