10
Lattice="16.290000149 0.0 0.0 0.0 16.290000149 0.0 0.0 0.0 29.1751946751" Properties=species:S:1:pos:R:3:initial_magmoms:R:1 pbc="T T T"
Si       1.32149368       1.32569650      -1.36541399       0.00000000
Si      -1.25810929       1.40107033       1.36455595       0.00000000
Si      -1.72504586      -0.94019365      -1.27595351       0.00000000
Si       1.45023596      -1.38463372       1.22635305       0.00000000
Si      -3.43031565       0.72843994      -1.14926343       0.00000000
Si      -2.57292407       2.66483225      -0.10831875       0.00000000
Si      -2.59081049      -2.66816030       0.10669952       0.00000000
Si       2.58442156      -0.10160073      -2.69273335       0.00000000
Si      -2.66924684      -0.00320913       2.62228692       0.00000000
Si       2.81253043       0.01057221       2.54444750       0.00000000
