10
Lattice="16.290000149 0.0 0.0 0.0 16.290000149 0.0 0.0 0.0 29.1751946751" Properties=species:S:1:pos:R:3:initial_magmoms:R:1 pbc="T T T"
Si      -1.35866746       1.37088496       1.32741301       0.00000000
Si      -1.37297008      -1.36388026      -1.33444423       0.00000000
Si       1.35260758       1.36707310      -1.35250367       0.00000000
Si       1.36156708      -1.32727663       1.38824329       0.00000000
Si       2.68343543      -2.70102863       0.01511275       0.00000000
Si      -2.70855461       0.02932200       2.68922357       0.00000000
Si       0.00560376       2.68708439       2.71253455       0.00000000
Si      -0.01236411      -2.71669961      -2.68729801       0.00000000
Si       2.70360245       0.02205666      -2.71629815       0.00000000
Si      -2.72507267       2.69664662      -0.04983123       0.00000000
