10
Lattice="16.290000149 0.0 0.0 0.0 16.290000149 0.0 0.0 0.0 29.1751946751" Properties=species:S:1:pos:R:3:initial_magmoms:R:1 pbc="T T T"
Si      -1.23186610       1.20098205       1.59606695       0.00000000
Si      -1.94206124      -0.85206475      -1.06190327       0.00000000
Si       1.30074022      -1.53002197       1.31810612       0.00000000
Si       1.47801305       1.30738231      -1.37293506       0.00000000
H       -0.86407048      -2.56681532      -1.85143743       0.00000000
Si      -2.64867257       2.54416734       0.34153066       0.00000000
Si       2.64929159      -0.28427679      -2.65915270       0.00000000
Si       2.82461924       2.52073091       0.10899561       0.00000000
Si      -3.68815377       0.69030505      -0.61058723       0.00000000
Si       2.69133771      -0.24304680       2.75270004       0.00000000
