10
Lattice="16.290000149 0.0 0.0 0.0 16.290000149 0.0 0.0 0.0 29.1751946751" Properties=species:S:1:pos:R:3:initial_magmoms:R:1 pbc="T T T"
H        1.35632170       0.57788776       0.27372168       0.00000000
Si      -0.46946151       0.42182955      -2.21171316       0.00000000
Si      -1.35780409       1.35149986       1.32805486       0.00000000
Si      -0.44808903      -2.20923353       0.61302919       0.00000000
H        2.27792846      -1.19436652      -0.17143344       0.00000000
H        2.95771017      -0.26749809       1.44469729       0.00000000
Si       0.62594326      -2.12136527       2.71308888       0.00000000
Si       1.35972631       1.71748730      -2.84583601       0.00000000
Si      -2.75488663      -2.03520746       1.21832695       0.00000000
Si      -2.53359513      -0.17669763       2.64773644       0.00000000
