10
Lattice="16.290000149 0.0 0.0 0.0 16.290000149 0.0 0.0 0.0 29.1751946751" Properties=species:S:1:pos:R:3:initial_magmoms:R:1 pbc="T T T"
Si      -1.46119672      -1.29712384       1.30109698       0.00000000
Si       1.36506943      -1.39051441      -1.31230026       0.00000000
Si      -1.36576990       1.32323671      -1.38062856       0.00000000
Si       1.38352600       1.35211888       1.34016257       0.00000000
Si      -0.08443107       2.69426828       2.56992620       0.00000000
Si      -0.22449249      -2.68851791       2.67341061       0.00000000
Si       2.71911053      -0.04108338      -2.68350523       0.00000000
Si      -0.01055592       2.67911858      -2.73590388       0.00000000
Si       0.00459378      -2.73603585      -2.67947905       0.00000000
Si       2.73341316       2.69368184      -0.02164799       0.00000000
