10
Lattice="16.290000149 0.0 0.0 0.0 16.290000149 0.0 0.0 0.0 29.1751946751" Properties=species:S:1:pos:R:3:initial_magmoms:R:1 pbc="T T T"
Si       1.34578044       1.46181574      -1.23355436       0.00000000
Si       1.38556062      -1.33988509       1.37194894       0.00000000
Si      -1.36029809       1.45836226       1.28719500       0.00000000
Si      -1.22016597      -1.48998115      -1.39844877       0.00000000
Si      -2.67934827      -2.66872556       0.01847082       0.00000000
Si      -2.66296053       0.10441890       2.72184727       0.00000000
Si      -0.01174672       2.70410744      -2.69006381       0.00000000
Si       2.79122474       0.26847549      -2.59101403       0.00000000
Si       0.03997403      -2.66875814       2.75373576       0.00000000
Si       0.03029940       2.74533744       2.72178892       0.00000000
