10
Lattice="16.290000149 0.0 0.0 0.0 16.290000149 0.0 0.0 0.0 29.1751946751" Properties=species:S:1:pos:R:3:initial_magmoms:R:1 pbc="T T T"
Si      -1.46514379       1.21055878       1.33809113       0.00000000
Si       1.17579103       1.52819749      -1.31968158       0.00000000
Si      -0.22129151      -1.85850983      -1.42940949       0.00000000
Si       1.43796230      -1.18648216       1.44440554       0.00000000
H       -2.95295837      -1.25900524      -1.44557255       0.00000000
Si       2.08550609      -2.03253590      -2.03470725       0.00000000
Si      -2.61775904      -0.42961617       2.51755672       0.00000000
Si       2.53359513       0.17669763      -2.64773644       0.00000000
Si       3.15953838      -1.94466764       0.06535244       0.00000000
Si      -0.00661863       2.59462235       2.68706460       0.00000000
