10
Lattice="16.290000149 0.0 0.0 0.0 16.290000149 0.0 0.0 0.0 29.1751946751" Properties=species:S:1:pos:R:3:initial_magmoms:R:1 pbc="T T T"
H        1.98148304      -0.08909001      -1.06086843       0.00000000
Si       1.02364732      -1.33652935       1.61788125       0.00000000
Si       0.75890224       1.87137893      -1.28417537       0.00000000
Si      -0.76911607      -2.04235877      -1.00838225       0.00000000
Si      -1.07074171       1.10930014       1.86808772       0.00000000
H       -1.21935538       1.25033896      -2.36876323       0.00000000
H       -3.01964475       0.04629618      -1.28175383       0.00000000
H       -1.87372469       1.66837295      -2.40771212       0.00000000
H        2.32029875      -0.78765409       2.54080935       0.00000000
Si      -1.02108979       3.42054165      -0.65308673       0.00000000
