10
Lattice="16.290000149 0.0 0.0 0.0 16.290000149 0.0 0.0 0.0 29.1751946751" Properties=species:S:1:pos:R:3:initial_magmoms:R:1 pbc="T T T"
Si      -1.54135981      -1.31255047      -1.18961856       0.00000000
Si      -1.40797729       1.18082953       1.47034229       0.00000000
Si       1.38968362      -1.31523832       1.42940949       0.00000000
Si       0.78178969       1.49934302      -1.70844105       0.00000000
H        1.17276598      -2.08616258      -2.24395175       0.00000000
Si      -1.28650276       2.22169212      -2.55563035       0.00000000
Si      -0.18355572      -2.66405033      -2.51767342       0.00000000
Si      -2.57135046       0.23366376      -2.67037639       0.00000000
Si       0.03868875       2.62232350       2.74564840       0.00000000
H       -0.60558076       3.77993163       0.02328181       0.00000000
