10
Lattice="16.290000149 0.0 0.0 0.0 16.290000149 0.0 0.0 0.0 29.1751946751" Properties=species:S:1:pos:R:3:initial_magmoms:R:1 pbc="T T T"
Si      -1.33876108      -1.28412442      -1.43256041       0.00000000
Si      -1.12791961       1.11417085       1.75526724       0.00000000
Si       1.35255871       1.39111714      -1.35340811       0.00000000
Si       1.34535853      -1.41154480       1.36936694       0.00000000
Si       0.73730170       1.97240951       2.99693435       0.00000000
Si       2.41118066       0.28587321       2.74932447       0.00000000
Si      -2.78793579      -0.40979124       2.48648514       0.00000000
Si       0.05455521      -2.63700893      -2.74626107       0.00000000
Si       2.73932642       0.04082274      -2.71075486       0.00000000
Si      -0.04523733      -3.23679045       2.11943202       0.00000000
