10
Lattice="16.290000149 0.0 0.0 0.0 16.290000149 0.0 0.0 0.0 29.1751946751" Properties=species:S:1:pos:R:3:initial_magmoms:R:1 pbc="T T T"
Si       0.10293651      -2.29399529      -0.23882814       0.00000000
Si      -1.74871523      -0.32772059       1.49108585       0.00000000
Si      -0.98290603       0.84990632      -1.99091528       0.00000000
Si       1.84208951       1.16929132       1.00464783       0.00000000
H       -0.41754528       2.64744594       1.49534543       0.00000000
Si      -2.50509251       2.16531080      -0.79336107       0.00000000
Si       1.70901650      -2.23189781      -2.04054229       0.00000000
Si      -1.06315057       3.49144713       0.41851817       0.00000000
Si       0.37952442      -3.17150502       2.01055019       0.00000000
Si      -3.66785643       0.72734688       0.71073692       0.00000000
