10
Lattice="16.28999089631971 0.0 0.0 0.0 16.28999089631971 0.0 0.0 0.0 34.51007289658418" Properties=species:S:1:pos:R:3:initial_magmoms:R:1 pbc="T T T"
Si      -0.84311176       1.73464065      -1.33923315       0.00000000
Si       0.92305656       1.48041891       1.60692793       0.00000000
Si       1.76604777      -1.07880525      -1.28022089       0.00000000
Si      -2.13234276      -1.15220799       0.78803795       0.00000000
Si      -2.14137719       0.29264985      -2.75121357       0.00000000
Si       2.41445493      -2.70228294       0.38299300       0.00000000
Si       0.51626268      -2.51869464      -2.61776304       0.00000000
Si      -0.92659801       1.81703547       3.08226888       0.00000000
Si       1.78294050       3.36585350       0.33350553       0.00000000
Si      -1.84255213       3.45086613       0.08075362       0.00000000
