10
Lattice="16.28999089631971 0.0 0.0 0.0 16.28999089631971 0.0 0.0 0.0 34.51007289658418" Properties=species:S:1:pos:R:3:initial_magmoms:R:1 pbc="T T T"
Si      -1.35079938      -1.34547974      -1.36777299       0.00000000
Si      -1.17819054       1.45463184       1.44697366       0.00000000
Si       1.36963062       1.36653552      -1.37015419       0.00000000
Si       1.33727868      -1.38335399       1.39862502       0.00000000
Si       2.16577179       0.46771848       2.61828069       0.00000000
Si       0.63151443       2.31987519       2.69789548       0.00000000
Si      -2.69172702      -2.69842940       0.02011938       0.00000000
Si       0.00965997      -2.70325124      -2.72477884       0.00000000
Si      -2.70539433       0.00988314      -2.72571061       0.00000000
Si      -2.69856882       2.73245202       0.02098214       0.00000000
