10
Lattice="16.28999089631971 0.0 0.0 0.0 16.28999089631971 0.0 0.0 0.0 34.51007289658418" Properties=species:S:1:pos:R:3:initial_magmoms:R:1 pbc="T T T"
Si       0.69970437       1.69813476      -1.42371385       0.00000000
Si      -0.56770650       0.72428598       2.17092637       0.00000000
Si      -1.80970497      -0.86524335      -1.25092182       0.00000000
Si       1.53425736      -1.85215671      -0.07961478       0.00000000
Si       1.81859931       1.27309608       1.90685514       0.00000000
Si       2.10246885       0.39744342      -2.71867055       0.00000000
Si       2.63989224       2.28229416      -0.16319823       0.00000000
Si       1.21857345      -2.47845834       2.16088393       0.00000000
Si      -0.63151443      -2.31987519      -2.69789548       0.00000000
Si      -1.33107219      -2.35682580       2.54756952       0.00000000
