10
Lattice="16.28999089631971 0.0 0.0 0.0 16.28999089631971 0.0 0.0 0.0 34.51007289658418" Properties=species:S:1:pos:R:3:initial_magmoms:R:1 pbc="T T T"
Si       1.82009799       0.94405437      -1.10125155       0.00000000
Si       0.16254162      -1.42764908       1.88939304       0.00000000
Si      -1.07118153      -1.77330464      -1.18348910       0.00000000
Si      -1.01778291       1.69500708       1.34830930       0.00000000
Si      -1.71134595      -0.09282042       2.66486932       0.00000000
Si       0.29971971       2.22187455      -2.52724307       0.00000000
Si      -2.43749713      -0.48885475      -2.55215936       0.00000000
Si       2.29873077      -0.54752808       2.69723978       0.00000000
Si       0.72365067       3.03137352       2.26410362       0.00000000
Si      -2.46351064      -3.05886194       0.21665436       0.00000000
