10
Lattice="16.28999089631971 0.0 0.0 0.0 16.28999089631971 0.0 0.0 0.0 34.51007289658418" Properties=species:S:1:pos:R:3:initial_magmoms:R:1 pbc="T T T"
Si       1.18675908      -0.16834086       2.00776265       0.00000000
Si       1.05616215      -0.29958939      -2.10131951       0.00000000
Si      -0.85638159      -2.18692598       0.40759870       0.00000000
Si      -0.59096862       2.35569690       0.31649206       0.00000000
Si      -1.51317810      -2.83495589      -1.73682392       0.00000000
Si       1.62769680       3.24662958       0.44676765       0.00000000
Si      -2.91791367      -1.78163730       1.32698206       0.00000000
Si       2.06606070       1.99189233       2.34603058       0.00000000
Si      -0.47244258      -0.30040389       3.73295667       0.00000000
Si       0.50938830      -2.50543784      -2.83603938       0.00000000
