10
Lattice="16.28999089631971 0.0 0.0 0.0 16.28999089631971 0.0 0.0 0.0 34.51007289658418" Properties=species:S:1:pos:R:3:initial_magmoms:R:1 pbc="T T T"
Si       1.35506736      -1.35394335      -1.35479720       0.00000000
Si      -1.35770634       1.35394335      -1.36031881       0.00000000
Si      -1.35863487      -1.35633798       1.35714389       0.00000000
Si       1.35681039       1.35860229       1.35783409       0.00000000
Si       0.00671148      -2.69790093      -2.70859015       0.00000000
Si       2.69260668      -0.00236205      -2.71811494       0.00000000
Si       2.71257822      -2.71262709      -0.00013804       0.00000000
Si       2.71353933       0.00148239       2.71463287       0.00000000
Si      -0.00179190      -2.71391400       2.71470189       0.00000000
Si       2.71067229       2.71855665       0.00031059       0.00000000
