10
Lattice="16.28999089631971 0.0 0.0 0.0 16.28999089631971 0.0 0.0 0.0 34.51007289658418" Properties=species:S:1:pos:R:3:initial_magmoms:R:1 pbc="T T T"
Si       0.93002868       1.74426804       1.20298730       0.00000000
Si       1.45849257      -1.27610973      -1.36628906       0.00000000
Si      -1.27850436       1.44845793      -1.38209468       0.00000000
Si      -1.89861579      -0.69906906       1.34710145       0.00000000
Si       1.64126637       0.60416352       3.13448265       0.00000000
Si      -2.55298509      -2.58183468       0.08389403       0.00000000
Si       0.08891082      -2.61954603      -2.74959159       0.00000000
Si      -2.62993905       0.09951561      -2.74990219       0.00000000
Si      -2.54827728       2.82822093       0.12792891       0.00000000
Si       2.75270049       2.72310156       0.07947674       0.00000000
