10
Lattice="16.28999089631971 0.0 0.0 0.0 16.28999089631971 0.0 0.0 0.0 34.51007289658418" Properties=species:S:1:pos:R:3:initial_magmoms:R:1 pbc="T T T"
Si       2.30874912      -0.31755726      -0.19501653       0.00000000
Si      -0.58940478      -0.09192447      -2.27307624       0.00000000
Si      -0.31845321      -2.14457850       0.92445635       0.00000000
Si      -1.01068047       1.84911048       1.13389810       0.00000000
Si       2.35325340      -2.59812468      -0.88128422       0.00000000
Si       0.13458798      -3.48905736      -1.01155982       0.00000000
Si       3.05908281       0.19111428       1.97784240       0.00000000
Si      -2.84534172       0.48283560      -2.28767401       0.00000000
Si      -1.47673737       3.36567690      -0.59843951       0.00000000
Si       1.35306369      -2.62141938       2.50767585       0.00000000
