10
Lattice="16.28999089631971 0.0 0.0 0.0 16.28999089631971 0.0 0.0 0.0 34.51007289658418" Properties=species:S:1:pos:R:3:initial_magmoms:R:1 pbc="T T T"
Si      -1.35290079       1.35101604       1.36373531       0.00000000
Si       1.34706897       1.35052734      -1.39028738       0.00000000
Si       1.36363590      -1.36554196       1.36207883       0.00000000
Si      -1.36129014      -1.36235129      -1.39228551       0.00000000
Si       2.51151075      -0.24881509      -2.77266159       0.00000000
Si       0.20699703      -2.57693369      -2.78982691       0.00000000
Si      -2.70679527       2.70714225       0.00417572       0.00000000
Si       0.00425169       2.70875496       2.71946428       0.00000000
Si      -2.71053871      -0.00531868       2.71967134       0.00000000
Si       2.72292237       2.70772869       0.00103530       0.00000000
