10
Lattice="16.28999089631971 0.0 0.0 0.0 16.28999089631971 0.0 0.0 0.0 34.51007289658418" Properties=species:S:1:pos:R:3:initial_magmoms:R:1 pbc="T T T"
Si       1.90035882      -0.39889323       1.35583250       0.00000000
Si      -1.94958720       0.67238604       1.25616736       0.00000000
Si      -0.77105457      -1.80669132      -1.46571264       0.00000000
Si      -0.17102871       1.94486310      -1.71974142       0.00000000
Si      -2.55733452       1.39605300      -1.45567020       0.00000000
Si       0.86011200       0.34808472       3.31745516       0.00000000
Si      -1.32792822      -0.55731348       3.19456472       0.00000000
Si       3.27213972       1.47271374       0.97822307       0.00000000
Si      -3.32070021      -1.68505878      -1.07902705       0.00000000
Si      -0.45537066      -1.18038969      -3.70621135       0.00000000
