10
Lattice="16.28999089631971 0.0 0.0 0.0 16.28999089631971 0.0 0.0 0.0 34.51007289658418" Properties=species:S:1:pos:R:3:initial_magmoms:R:1 pbc="T T T"
Si      -1.60889814       1.35865116      -1.06035709       0.00000000
Si      -0.75437361      -2.26666295      -0.32473997       0.00000000
Si       0.78258789       1.27456218       1.91751876       0.00000000
Si       2.06853678      -0.20364129      -1.28087658       0.00000000
Si      -0.56865132       0.61167321      -3.02197975       0.00000000
Si      -0.71198703      -2.55237326       2.01880588       0.00000000
Si       1.63201365       3.05593884       0.49221744       0.00000000
Si       2.31950052       2.11154238      -1.60447772       0.00000000
Si       1.21187826      -3.55886720      -0.74541799       0.00000000
Si       1.60006896      -2.37798881       2.71080225       0.00000000
