10
Lattice="16.28999089631971 0.0 0.0 0.0 16.28999089631971 0.0 0.0 0.0 34.51007289658418" Properties=species:S:1:pos:R:3:initial_magmoms:R:1 pbc="T T T"
Si       0.08772165      -1.87858398       1.39641637       0.00000000
Si       1.82821041       0.54136557      -1.47178641       0.00000000
Si       0.82153728       1.12495482       2.01183484       0.00000000
Si      -1.94225670      -0.51541560      -1.42060794       0.00000000
Si       1.35125550      -1.19601180      -2.96351966       0.00000000
Si      -3.03212286       1.47826863      -1.07881999       0.00000000
Si      -0.88391169      -0.83715939      -3.48703775       0.00000000
Si       1.91629044      -0.76791060       3.11443057       0.00000000
Si       0.22977045      -3.79235177       0.06353308       0.00000000
Si      -1.45226979       3.25980819      -1.50905731       0.00000000
