10
Lattice="16.28999089631971 0.0 0.0 0.0 16.28999089631971 0.0 0.0 0.0 34.51007289658418" Properties=species:S:1:pos:R:3:initial_magmoms:R:1 pbc="T T T"
Si       1.26918648      -1.31328351      -1.63501915       0.00000000
Si      -0.88040934      -2.17170135       0.91613942       0.00000000
Si       1.99083348       0.80137026       1.33416016       0.00000000
Si      -1.41133302       1.36430379      -1.60119926       0.00000000
Si      -0.34406109       0.95246001       2.73012790       0.00000000
Si       2.58437592      -2.66543496      -0.31404184       0.00000000
Si      -2.86982559       2.64041352      -0.23491020       0.00000000
Si       2.81533554       2.70875007       0.03916895       0.00000000
Si       3.68455365      -0.99517239       0.92445635       0.00000000
Si      -2.82059721      -2.75586075      -0.34437621       0.00000000
