10
Lattice="16.28999089631971 0.0 0.0 0.0 16.28999089631971 0.0 0.0 0.0 34.51007289658418" Properties=species:S:1:pos:R:3:initial_magmoms:R:1 pbc="T T T"
Si       1.66345335       0.98393229       1.29260898       0.00000000
Si       1.47888765      -1.07497710      -1.50571574       0.00000000
Si      -1.13200839      -1.71356139       1.20105715       0.00000000
Si      -1.72555083       1.80190206      -0.13711450       0.00000000
Si       0.31135077       2.37662955       2.59402251       0.00000000
Si      -2.44589463      -0.35772840       2.58985715       0.00000000
Si      -0.31050369      -2.04143022      -3.05318278       0.00000000
Si       3.53528838       1.76316444      -0.12344851       0.00000000
Si       2.41608393       2.29029255      -2.13069351       0.00000000
Si      -0.91030149       3.70734336       1.07500214       0.00000000
