10
Lattice="16.28999089631971 0.0 0.0 0.0 16.28999089631971 0.0 0.0 0.0 34.51007289658418" Properties=species:S:1:pos:R:3:initial_magmoms:R:1 pbc="T T T"
Si      -1.35847197      -1.35624024      -1.35745448       0.00000000
Si      -1.35751086       1.35786924       1.35731644       0.00000000
Si       1.35799956      -1.35816246       1.35783409       0.00000000
Si       1.36010097       1.35731538      -1.35800664       0.00000000
Si      -2.71598283       0.00244350      -2.71211363       0.00000000
Si       2.71474479      -0.00084708       2.71401169       0.00000000
Si       2.71568961      -0.00032580      -2.71349404       0.00000000
Si      -2.71423980       2.71498914       0.00051765       0.00000000
Si       2.71472850      -2.71487511      -0.00010353       0.00000000
Si      -2.71479366      -2.71482624      -0.00020706       0.00000000
