10
Lattice="16.28999089631971 0.0 0.0 0.0 16.28999089631971 0.0 0.0 0.0 34.51007289658418" Properties=species:S:1:pos:R:3:initial_magmoms:R:1 pbc="T T T"
Si      -1.35685926       1.35789426       1.35666074       0.00000000
Si       1.35803214      -1.35708732       1.35690231       0.00000000
Si       1.35884664       1.35631574      -1.35690231       0.00000000
Si      -1.36023129      -1.35464382      -1.35735095       0.00000000
Si      -2.70964602      -0.00478926      -2.71314894       0.00000000
Si       2.71437012       0.00034209      -2.71118186       0.00000000
Si      -0.00060273       2.71457116       2.71359757       0.00000000
Si       2.71440270       0.00100998       2.71421875       0.00000000
Si      -2.71409319      -2.71459818       0.00017255       0.00000000
Si      -2.71445157       0.00130320       2.71449483       0.00000000
