10
Lattice="16.28999089631971 0.0 0.0 0.0 16.28999089631971 0.0 0.0 0.0 34.51007289658418" Properties=species:S:1:pos:R:3:initial_magmoms:R:1 pbc="T T T"
Si      -1.34153037      -1.35001746       1.37591738       0.00000000
Si       1.35666378      -1.35757602      -1.35821370       0.00000000
Si      -1.35834165       1.35598516      -1.35883488       0.00000000
Si       1.35523026       1.33973262       1.38737473       0.00000000
Si      -2.71221984       2.71250396      -0.00331297       0.00000000
Si       2.71564074      -2.71393029       0.00300238       0.00000000
Si      -0.00030951       2.71418183      -2.71566817       0.00000000
Si      -2.71459818      -0.00069174      -2.71577170       0.00000000
Si       2.71534752      -0.00087296      -2.71511601       0.00000000
Si       0.00029322      -2.71567332      -2.71553013       0.00000000
