10
Lattice="16.28999089631971 0.0 0.0 0.0 16.28999089631971 0.0 0.0 0.0 34.51007289658418" Properties=species:S:1:pos:R:3:initial_magmoms:R:1 pbc="T T T"
Si      -0.20000862       0.86690493       2.21251103       0.00000000
Si      -2.26129635      -0.85644675      -0.47430671       0.00000000
Si       0.68181795      -2.39697576       0.13804037       0.00000000
Si       0.72964539       1.74259017      -1.92642237       0.00000000
Si      -1.37679822      -3.14856378      -0.64375126       0.00000000
Si       2.79353952       0.43108227      -2.06108075       0.00000000
Si      -2.47850721       1.57205016       2.34647921       0.00000000
Si      -2.97253404       0.28365777      -2.40580206       0.00000000
Si       1.73169216       2.26450548       2.66945916       0.00000000
Si      -1.14986223       1.26249129      -3.52931262       0.00000000
