10
Lattice="16.28999089631971 0.0 0.0 0.0 16.28999089631971 0.0 0.0 0.0 34.51007289658418" Properties=species:S:1:pos:R:3:initial_magmoms:R:1 pbc="T T T"
Si      -0.93002868      -1.74426804      -1.20298730       0.00000000
Si       0.71123769      -1.14010452       1.93149535       0.00000000
Si       1.82267181       0.97883352      -1.12351056       0.00000000
Si      -1.49820759       1.88776665       0.18304153       0.00000000
Si      -2.20853304      -0.29581011      -2.58508199       0.00000000
Si       0.52830099       2.43545274      -2.57755879       0.00000000
Si      -2.82864447      -2.44333710       0.14411414       0.00000000
Si      -3.47830596       1.08395289      -1.07505839       0.00000000
Si      -0.40192317       2.60460810       2.74144721       0.00000000
Si       2.97253404      -0.28365777       2.40580206       0.00000000
