10
Lattice="16.28999089631971 0.0 0.0 0.0 16.28999089631971 0.0 0.0 0.0 34.51007289658418" Properties=species:S:1:pos:R:3:initial_magmoms:R:1 pbc="T T T"
Si       0.20000862      -0.86690493      -2.21251103       0.00000000
Si      -2.27849859       0.70514523       0.13396818       0.00000000
Si       0.23283297      -1.60655238       1.76419042       0.00000000
Si       1.93170078       1.39760055       0.45694813       0.00000000
Si       1.31748633       1.62686601       2.75193828       0.00000000
Si       0.44256672      -0.29853054       3.73368138       0.00000000
Si      -3.46581153      -1.31013954      -0.74714350       0.00000000
Si      -2.06128773      -1.72335168      -2.68681774       0.00000000
Si      -2.67700086       1.76849127       2.32711905       0.00000000
Si       0.88182657      -3.26388069      -2.07447066       0.00000000
