10
Lattice="16.28999089631971 0.0 0.0 0.0 16.28999089631971 0.0 0.0 0.0 34.51007289658418" Properties=species:S:1:pos:R:3:initial_magmoms:R:1 pbc="T T T"
Si       1.35767376       1.35697541       1.35641917       0.00000000
Si       1.35703845      -1.35707773      -1.35766154       0.00000000
Si      -1.35868374      -1.35670306       1.35690231       0.00000000
Si      -1.35803214       1.35825255      -1.35779958       0.00000000
Si       2.70919111       0.00331646       2.71408071       0.00000000
Si      -0.00053757      -2.71318765      -2.71404620       0.00000000
Si      -2.71423980      -0.00139729      -2.71421875       0.00000000
Si       2.71417297      -2.71473520      -0.00034510       0.00000000
Si       2.71498914      -0.00010444      -2.71452934       0.00000000
Si       2.71455371       2.71520140       0.00013804       0.00000000
