10
Lattice="16.28999089631971 0.0 0.0 0.0 16.28999089631971 0.0 0.0 0.0 34.51007289658418" Properties=species:S:1:pos:R:3:initial_magmoms:R:1 pbc="T T T"
Si      -1.35523026      -1.33973262      -1.38737473       0.00000000
Si       1.36031274       1.37760946      -1.38347509       0.00000000
Si      -1.40160789       1.33162279       1.42171227       0.00000000
Si       1.23090498      -1.49235363       1.54032345       0.00000000
Si      -2.69676063      -2.68975008      -0.01145735       0.00000000
Si       2.70462870      -2.68294086      -0.01728956       0.00000000
Si      -2.70309744       2.72355442      -0.04130858       0.00000000
Si       2.71894761       2.72177881      -0.01397659       0.00000000
Si       0.00143352      -2.69730864      -2.74558842       0.00000000
Si      -2.71357191       0.01625253      -2.74620961       0.00000000
