10
Lattice="16.28999089631971 0.0 0.0 0.0 16.28999089631971 0.0 0.0 0.0 34.51007289658418" Properties=species:S:1:pos:R:3:initial_magmoms:R:1 pbc="T T T"
Si      -0.82153728      -1.12495482      -2.01183484       0.00000000
Si       1.09475316      -1.89286542       1.10259572       0.00000000
Si      -1.71509265       1.59109317       0.84135605       0.00000000
Si       2.19432816       1.00998000      -0.78965993       0.00000000
Si      -0.73381563      -3.00353880      -0.61541847       0.00000000
Si       2.25311877      -0.04421106       2.36511263       0.00000000
Si       1.04169663       3.14680446      -1.41046198       0.00000000
Si      -1.40703246       3.00216555      -1.45042466       0.00000000
Si       1.00667313      -0.58358925      -3.48362126       0.00000000
Si      -0.40661469       2.91621951       2.31940401       0.00000000
