10
Lattice="16.28999089631971 0.0 0.0 0.0 16.28999089631971 0.0 0.0 0.0 34.51007289658418" Properties=species:S:1:pos:R:3:initial_magmoms:R:1 pbc="T T T"
Si       1.35632169       1.35733167      -1.35735095       0.00000000
Si      -1.35672894       1.35671265       1.35793762       0.00000000
Si      -1.35580041      -1.35819504      -1.35776507       0.00000000
Si       1.35796698      -1.35755973       1.35766154       0.00000000
Si       0.00096111       2.71454931      -2.71339051       0.00000000
Si       0.00001629       2.71402803       2.71411522       0.00000000
Si      -2.71407690      -0.00195480       2.71425326       0.00000000
Si      -0.00104256      -2.71458189       2.71414973       0.00000000
Si      -2.71472850       2.71487511       0.00010353       0.00000000
Si      -2.71471221      -2.71495656       0.00003451       0.00000000
