10
Lattice="16.28999089631971 0.0 0.0 0.0 16.28999089631971 0.0 0.0 0.0 34.51007289658418" Properties=species:S:1:pos:R:3:initial_magmoms:R:1 pbc="T T T"
Si       1.34964279      -1.35769005       1.35987018       0.00000000
Si       1.35620766       1.35542574      -1.35752350       0.00000000
Si      -1.35907470       1.35567009       1.35773056       0.00000000
Si      -1.35816246      -1.35897696      -1.35752350       0.00000000
Si      -2.70790951       0.00552231       2.71870506       0.00000000
Si       2.70747945       0.01497051       2.71911918       0.00000000
Si       2.71277370       2.71410948       0.00051765       0.00000000
Si      -0.00063531       2.71300176      -2.71508150       0.00000000
Si      -2.71512923       2.71379997      -0.00034510       0.00000000
Si       2.71425609      -0.00187335      -2.71511601       0.00000000
