10
Lattice="16.28999089631971 0.0 0.0 0.0 16.28999089631971 0.0 0.0 0.0 34.51007289658418" Properties=species:S:1:pos:R:3:initial_magmoms:R:1 pbc="T T T"
Si       1.34342001       1.35275418      -1.38582177       0.00000000
Si      -1.36410831      -1.36578618      -1.38540765       0.00000000
Si       1.52037828      -1.27782018       1.42599152       0.00000000
Si      -1.38039831       1.44138807       1.43151313       0.00000000
Si      -0.29971971      -2.22187455       2.52724307       0.00000000
Si       2.70125667       2.72541474      -0.02657277       0.00000000
Si      -2.71413229       2.71596654      -0.02698689       0.00000000
Si       2.69856882      -2.73245202      -0.02098214       0.00000000
Si       0.31455990       2.47291974       2.93139076       0.00000000
Si      -2.73721684      -2.71072931      -0.02491629       0.00000000
