10
Lattice="16.28999089631971 0.0 0.0 0.0 16.28999089631971 0.0 0.0 0.0 34.51007289658418" Properties=species:S:1:pos:R:3:initial_magmoms:R:1 pbc="T T T"
Si      -1.71062919      -1.51840719      -0.41577759       0.00000000
Si       0.95320188      -0.33199020       2.11091332       0.00000000
Si       1.64801110      -0.70421670      -1.51747777       0.00000000
Si      -1.11705417       2.00656962      -0.49204489       0.00000000
Si       1.84446524      -2.40911181       1.50477806       0.00000000
Si       3.04998389       1.15404876      -1.53673440       0.00000000
Si       0.42609527      -1.52412498      -3.37111835       0.00000000
Si      -0.78366303      -0.58455036       3.59929908       0.00000000
Si      -2.80595250       1.45109691      -2.03785545       0.00000000
Si       3.13806392      -2.14254225      -0.40083472       0.00000000
