10
Lattice="16.28999089631971 0.0 0.0 0.0 16.28999089631971 0.0 0.0 0.0 34.51007289658418" Properties=species:S:1:pos:R:3:initial_magmoms:R:1 pbc="T T T"
Si       2.25880072      -0.38698524       0.43520677       0.00000000
Si      -0.50778603       1.55999556       1.68813018       0.00000000
Si      -1.14237927      -1.90262313       0.84770590       0.00000000
Si      -0.26289437       0.38160954      -2.34054347       0.00000000
Si       0.37108131      -3.36805524      -0.12282142       0.00000000
Si       0.08538078       0.11909619       3.44845547       0.00000000
Si      -2.51780913       0.88101207      -2.25671846       0.00000000
Si       3.14996146       1.42488630      -0.75701338       0.00000000
Si       2.30143165       0.12755070       2.71466738       0.00000000
Si       2.62314286      -2.84327289       0.22234852       0.00000000
