10
Lattice="16.28999089631971 0.0 0.0 0.0 16.28999089631971 0.0 0.0 0.0 34.51007289658418" Properties=species:S:1:pos:R:3:initial_magmoms:R:1 pbc="T T T"
Si      -0.86154552      -1.72261863      -1.32248302       0.00000000
Si      -1.33253829       1.36731744       1.35843456       0.00000000
Si       1.39587381      -1.31615055       1.36492591       0.00000000
Si       0.81195876       1.89468990      -1.14901455       0.00000000
Si       1.02188799       0.50329584      -2.99123268       0.00000000
Si      -1.03283487      -0.51380289      -3.35179412       0.00000000
Si      -2.68458711       0.02746494       2.71378392       0.00000000
Si       0.02974554      -2.69021205       2.71361137       0.00000000
Si      -2.55682464       2.84038956      -0.01985366       0.00000000
Si       0.86837103      -3.51852597      -1.23772482       0.00000000
