10
Lattice="16.28999089631971 0.0 0.0 0.0 16.28999089631971 0.0 0.0 0.0 34.51007289658418" Properties=species:S:1:pos:R:3:initial_magmoms:R:1 pbc="T T T"
Si       1.35762489       1.35607734       1.35724742       0.00000000
Si      -1.35735936       1.35676152      -1.35697133       0.00000000
Si      -1.35688532      -1.35685926       1.35748899       0.00000000
Si       1.35760860      -1.35765747      -1.35724742       0.00000000
Si       0.00027693      -2.71466334      -2.71387365       0.00000000
Si       2.71454931       2.71459818       0.00024157       0.00000000
Si       2.71445157      -2.71523349       0.00031059       0.00000000
Si      -2.71566416      -0.00143352      -2.71435679       0.00000000
Si      -2.71508173      -2.71505430       0.00062118       0.00000000
Si      -2.71558443       2.71485882       0.00024157       0.00000000
