10
Lattice="16.28999089631971 0.0 0.0 0.0 16.28999089631971 0.0 0.0 0.0 34.51007289658418" Properties=species:S:1:pos:R:3:initial_magmoms:R:1 pbc="T T T"
Si       1.10347320       1.55134557      -1.50501963       0.00000000
Si      -1.48624812      -1.05280641      -1.62670222       0.00000000
Si      -1.11985279       0.46625238       2.26344793       0.00000000
Si       3.00166545       1.36775727       1.49573642       0.00000000
Si       2.35325829       2.99123496      -0.16747748       0.00000000
Si      -1.54513224       2.91783222       1.90078137       0.00000000
Si       2.28558963      -1.85969898       2.43299601       0.00000000
Si       2.49563289       0.21709683      -2.97759977       0.00000000
Si      -0.20680318      -2.48860701      -2.99737406       0.00000000
Si      -3.24772331      -2.15832726      -0.44835512       0.00000000
