10
Lattice="10.86 0.0 0.0 0.0 10.86 0.0 0.0 0.0 10.86" Properties=species:S:1:pos:R:3:initial_magmoms:R:1 pbc="T T T"
Si      -1.16633142       1.37508234      -1.24922580       0.00000000
Si       1.46833716      -1.04881536      -1.36273452       0.00000000
Si      -1.16633142      -1.33991766       1.46577420       0.00000000
Si       1.54866858       1.37508234       1.46577420       0.00000000
Si      -2.52383142       0.01758234      -2.60672580       0.00000000
Si      -2.52383142      -2.69741766       0.10827420       0.00000000
Si      -2.52383142       2.73258234       0.10827420       0.00000000
Si       0.19116858       2.73258234      -2.60672580       0.00000000
Si      -2.52383142       0.01758234       2.82327420       0.00000000
Si       0.32817834      -2.80690818      -2.57196294       0.00000000
