10
Lattice="16.2900001489832 0.0 0.0 0.0 16.2900001489832 0.0 0.0 0.0 29.49423432800756" Properties=species:S:1:pos:R:3:initial_magmoms:R:1 pbc="T T T"
Si      -1.19666341       1.48100048      -1.38743828       0.00000000
Si       1.26881182       1.32494065       1.49412482       0.00000000
Si       1.37187865      -1.30634398      -1.43041138       0.00000000
Si      -1.49661118      -1.48514302       1.11116873       0.00000000
H       -1.53850906      -1.63131319      -2.43480803       0.00000000
Si      -2.52600887      -0.11282454      -2.49270521       0.00000000
Si      -0.20452095      -2.67281435      -2.57599693       0.00000000
Si      -0.11681559      -2.66310551       2.68303446       0.00000000
Si       2.59035437       2.75450871       0.21667644       0.00000000
Si       2.72147258      -2.66435984      -0.04586353       0.00000000
