10
Lattice="16.2900001489832 0.0 0.0 0.0 16.2900001489832 0.0 0.0 0.0 29.49423432800756" Properties=species:S:1:pos:R:3:initial_magmoms:R:1 pbc="T T T"
Si       1.36896274      -1.26961003      -1.40274578       0.00000000
Si       1.27386172       1.42307324       1.34478961       0.00000000
Si      -1.42469083       1.36389004      -1.28456239       0.00000000
Si      -0.83683360      -1.72843418       1.37920939       0.00000000
Si       2.65033415      -2.60794757       0.04834105       0.00000000
Si      -2.66291003      -2.67906971       0.11549942       0.00000000
Si      -0.04116483      -2.65241927      -2.70612549       0.00000000
Si      -2.76410352       2.61048881       0.22501151       0.00000000
Si       2.82199818       0.22487368       2.56298997       0.00000000
Si       0.92620054      -3.42596622       1.44347732       0.00000000
