10
Lattice="16.2900001489832 0.0 0.0 0.0 16.2900001489832 0.0 0.0 0.0 29.49423432800756" Properties=species:S:1:pos:R:3:initial_magmoms:R:1 pbc="T T T"
Si      -1.15037538      -1.79358277      -0.95086462       0.00000000
Si      -0.96694997       0.24749560       2.12814792       0.00000000
Si      -0.32976010       2.15416844      -0.88506298       0.00000000
Si       2.28544630      -0.35418207      -0.62917101       0.00000000
Si       0.65535648      -3.38290035      -0.68099238       0.00000000
Si       2.11541127      -0.07145576      -2.94786024       0.00000000
Si       0.76348787       1.21448956       3.35312282       0.00000000
Si      -2.60189584       2.55491874      -0.33068936       0.00000000
Si       0.76769558       1.92589667      -3.02274610       0.00000000
Si       2.14134495       2.49778971       1.88487709       0.00000000
