10
Lattice="16.2900001489832 0.0 0.0 0.0 16.2900001489832 0.0 0.0 0.0 29.49423432800756" Properties=species:S:1:pos:R:3:initial_magmoms:R:1 pbc="T T T"
Si       0.11354130       0.80244541      -1.28246830       0.00000000
Si      -1.68919157       2.24469686      -1.14154485       0.00000000
Si       2.38180979       1.28513440      -1.47969624       0.00000000
Si      -1.45761292      -2.64688067       0.72747529       0.00000000
Si       0.74477881      -2.51885756       1.75387464       0.00000000
Si      -0.35689761      -0.63589645      -3.09400417       0.00000000
Si      -3.13354443      -0.72117460       0.67361882       0.00000000
H       -1.37209042      -1.59855400      -2.53473450       0.00000000
Si       3.15317388      -0.93957463      -1.34762106       0.00000000
Si       2.90968725      -1.92290420       0.84710390       0.00000000
