10
Lattice="16.2900001489832 0.0 0.0 0.0 16.2900001489832 0.0 0.0 0.0 29.49423432800756" Properties=species:S:1:pos:R:3:initial_magmoms:R:1 pbc="T T T"
Si       1.34666173      -1.20130606      -1.48080817       0.00000000
Si      -1.33968961      -1.38147346       1.33054390       0.00000000
Si      -1.27812970       1.36580248      -1.44972420       0.00000000
Si       1.43865136       1.38435679       1.28190791       0.00000000
Si       2.08337699       0.72684352      -2.73441754       0.00000000
Si       0.38253807       2.48955185      -2.67553496       0.00000000
Si       0.01617597       2.73994545       2.56529052       0.00000000
Si      -2.73442314       0.01764207       2.59472577       0.00000000
Si      -2.69788466      -2.65220750      -0.14459548       0.00000000
Si       2.74090655      -2.60957657      -0.14351599       0.00000000
