10
Lattice="16.2900001489832 0.0 0.0 0.0 16.2900001489832 0.0 0.0 0.0 29.49423432800756" Properties=species:S:1:pos:R:3:initial_magmoms:R:1 pbc="T T T"
Si      -1.34666173       1.20130606       1.48080817       0.00000000
Si      -1.34726446      -1.41972238      -1.31686329       0.00000000
Si       1.39424482      -1.40827051       1.33729218       0.00000000
Si       0.73671526       1.92814958      -1.25360937       0.00000000
Si       1.66623896      -1.04296726      -3.04413827       0.00000000
Si      -2.62479143       2.56710854       0.03108397       0.00000000
Si       0.06998184      -2.74007577      -2.57703808       0.00000000
Si       1.02524374       1.20221830      -3.43316722       0.00000000
Si       0.09198963       2.58566285       2.76271608       0.00000000
Si      -2.53555481      -0.07832232      -2.82449470       0.00000000
