10
Lattice="16.2900001489832 0.0 0.0 0.0 16.2900001489832 0.0 0.0 0.0 29.49423432800756" Properties=species:S:1:pos:R:3:initial_magmoms:R:1 pbc="T T T"
Si      -1.35700588      -1.45816678       1.28792473       0.00000000
Si      -1.39403305       1.29103138      -1.42368669       0.00000000
Si       1.29793834      -1.30438918      -1.52898111       0.00000000
Si       1.31800762       1.43220052       1.44156020       0.00000000
Si      -2.73597068      -0.04673601       2.62333518       0.00000000
Si       2.71880102      -0.07954407       2.65454008       0.00000000
Si      -0.05434344       2.67250484      -2.75423059       0.00000000
Si       2.66706398      -2.75284713      -0.27279217       0.00000000
Si       2.70360245       2.74124865       0.01516004       0.00000000
Si      -2.70356987      -2.74841625      -0.19153556       0.00000000
