10
Lattice="16.2900001489832 0.0 0.0 0.0 16.2900001489832 0.0 0.0 0.0 29.49423432800756" Properties=species:S:1:pos:R:3:initial_magmoms:R:1 pbc="T T T"
Si       1.38559483       1.30904812      -1.42640016       0.00000000
Si       1.40079340      -1.51174459       1.21297988       0.00000000
Si      -1.31800762      -1.43220052      -1.44156020       0.00000000
Si      -1.42379488       1.40374189       1.39053517       0.00000000
Si      -2.70677900       2.58862763      -0.23683870       0.00000000
Si       2.71448417       2.63909405       0.05568511       0.00000000
Si      -2.79158475      -0.13888854       2.67073241       0.00000000
Si       2.65509083      -2.78713758      -0.36894338       0.00000000
Si       0.03244968      -2.92175814       2.56520204       0.00000000
Si       0.06630030       2.62466111      -2.91388288       0.00000000
