10
Lattice="16.2900001489832 0.0 0.0 0.0 16.2900001489832 0.0 0.0 0.0 29.49423432800756" Properties=species:S:1:pos:R:3:initial_magmoms:R:1 pbc="T T T"
Si      -1.42211848      -0.33202278      -1.85480391       0.00000000
Si       1.43292869       1.71794342      -0.80731618       0.00000000
Si       1.34771570      -1.99735243       0.07488586       0.00000000
Si      -1.09745568       0.22827177       2.13768312       0.00000000
Si      -0.04816464      -1.96364223      -2.90653882       0.00000000
Si       1.51775072      -2.28007874       2.39357509       0.00000000
Si      -0.76769558      -1.92589667       3.02274610       0.00000000
Si       0.02364331      -3.64666314      -1.04633746       0.00000000
Si       0.16219464       3.75315087      -0.70930684       0.00000000
Si      -1.96653370       1.78336406      -2.81554910       0.00000000
