10
Lattice="16.2900001489832 0.0 0.0 0.0 16.2900001489832 0.0 0.0 0.0 29.49423432800756" Properties=species:S:1:pos:R:3:initial_magmoms:R:1 pbc="T T T"
Si       0.09925497      -1.27982386       1.98434259       0.00000000
Si      -0.62522650       2.26221838       0.42990796       0.00000000
Si       2.24987708       0.00055386      -0.92735772       0.00000000
Si      -1.62471574      -0.90951958      -1.58764514       0.00000000
H        2.00595062       0.03648960      -2.43348079       0.00000000
Si      -0.96306481       0.10456551      -3.62723043       0.00000000
Si       3.12668634       2.12825594      -0.21990901       0.00000000
Si      -1.63058014      -2.88199425       1.84645705       0.00000000
Si       1.90198784      -2.72207531       1.84341914       0.00000000
Si      -1.68992462       3.11579159      -1.51296574       0.00000000
