10
Lattice="16.2900001489832 0.0 0.0 0.0 16.2900001489832 0.0 0.0 0.0 29.49423432800756" Properties=species:S:1:pos:R:3:initial_magmoms:R:1 pbc="T T T"
Si       1.11190654       1.68016691       1.17640792       0.00000000
Si      -1.66066778      -1.12374937       1.22581076       0.00000000
Si      -1.30438918       1.06365556      -1.68501062       0.00000000
Si       1.70083892      -1.76270834      -0.05888258       0.00000000
Si       2.40979601       0.30913533       2.58994859       0.00000000
Si      -0.38253807      -2.48955185       2.67553496       0.00000000
Si      -2.96406327      -2.43098930      -0.27978387       0.00000000
Si      -0.41829462       2.98970373       2.38159837       0.00000000
Si       2.41999355       2.98844940      -0.34729962       0.00000000
Si      -1.88895584      -0.69095665      -3.31869626       0.00000000
