10
Lattice="16.2900001489832 0.0 0.0 0.0 16.2900001489832 0.0 0.0 0.0 29.49423432800756" Properties=species:S:1:pos:R:3:initial_magmoms:R:1 pbc="T T T"
Si       0.46103307       1.02912076       2.07468343       0.00000000
Si      -0.02148651       1.83976004      -1.51497135       0.00000000
Si       2.02884784      -1.21371904      -0.31269787       0.00000000
Si      -2.12239806      -1.15571035      -0.22973059       0.00000000
H        2.11748173       2.02020437      -0.08249537       0.00000000
H       -0.20206605       0.15273504       3.09583281       0.00000000
H       -0.10731526      -2.32163453       2.23648880       0.00000000
Si       2.04657136      -0.84416410      -2.60956137       0.00000000
Si      -0.61666121       3.11002167       1.75225246       0.00000000
Si      -1.88568806       1.49366269      -2.88483106       0.00000000
