10
Lattice="16.2900001489832 0.0 0.0 0.0 16.2900001489832 0.0 0.0 0.0 29.49423432800756" Properties=species:S:1:pos:R:3:initial_magmoms:R:1 pbc="T T T"
Si      -1.78051331      -1.25281504       0.83070511       0.00000000
Si       1.88859746      -1.35045730       0.46090640       0.00000000
Si      -0.52489638       0.32048946      -2.29285228       0.00000000
Si      -0.51333048       1.88841827       1.40180197       0.00000000
H       -2.09857556      -0.74958436       2.20749597       0.00000000
H       -1.30766347       1.41182173       2.59909092       0.00000000
Si       1.93316690      -0.83437381       2.72727286       0.00000000
Si      -1.94075804       2.15741504      -2.07739690       0.00000000
Si      -3.60222402      -0.72153298      -0.50361405       0.00000000
Si      -1.81447796       3.32902443      -0.03191276       0.00000000
