10
Lattice="16.2900001489832 0.0 0.0 0.0 16.2900001489832 0.0 0.0 0.0 29.49423432800756" Properties=species:S:1:pos:R:3:initial_magmoms:R:1 pbc="T T T"
Si      -0.98660712       0.28028574       2.07597675       0.00000000
Si      -1.35459822      -0.98740207      -1.59761419       0.00000000
Si       0.90524997       2.02670408      -0.72797669       0.00000000
Si       1.45397700      -1.87455548      -0.06907550       0.00000000
Si      -0.42005036      -3.05512437      -1.03173781       0.00000000
Si       2.33764434       2.02732310       1.44993656       0.00000000
Si       0.93396761       1.12112668       3.17946666       0.00000000
Si       1.15114589       1.38981394      -3.09633421       0.00000000
Si      -0.94896093       0.06204861      -3.66701815       0.00000000
Si      -0.90048189       3.61602165      -0.99784894       0.00000000
