10
Lattice="16.2900001489832 0.0 0.0 0.0 16.2900001489832 0.0 0.0 0.0 29.49423432800756" Properties=species:S:1:pos:R:3:initial_magmoms:R:1 pbc="T T T"
Si      -1.33222879       1.53428344      -1.18140630       0.00000000
Si      -1.31397422      -1.23553135       1.53606267       0.00000000
Si       1.29512017       1.41201395       1.44209404       0.00000000
Si       1.21912732      -1.40670667      -1.55982618       0.00000000
Si       2.59892291      -2.58466916       0.01203955       0.00000000
Si      -2.64215495      -2.56246589       0.15025838       0.00000000
Si       2.71573850       0.07843635      -2.67099491       0.00000000
Si       0.04562829       2.81758359      -2.64965203       0.00000000
Si       2.68170869       0.08741214       2.81463773       0.00000000
Si       2.65269620       2.84221407       0.15733404       0.00000000
