10
Lattice="16.2900001489832 0.0 0.0 0.0 16.2900001489832 0.0 0.0 0.0 29.49423432800756" Properties=species:S:1:pos:R:3:initial_magmoms:R:1 pbc="T T T"
Si      -1.87229117       0.61633216       1.31907064       0.00000000
Si      -1.13477770      -1.07784415      -1.80687578       0.00000000
Si       1.62963532       1.33149574      -1.14260664       0.00000000
Si       1.39292533      -1.31787730       1.51249383       0.00000000
H       -0.14444343       2.77267206       0.07975241       0.00000000
H       -1.44736651       0.97839370       2.74847921       0.00000000
H        0.91210969       2.74142784      -1.60829110       0.00000000
Si       0.43588782      -2.78485698      -2.20085977       0.00000000
Si       1.53911179      -3.26607987      -0.06780724       0.00000000
Si      -3.08930079      -1.38072412       1.48335353       0.00000000
