10
Lattice="16.2900001489832 0.0 0.0 0.0 16.2900001489832 0.0 0.0 0.0 29.49423432800756" Properties=species:S:1:pos:R:3:initial_magmoms:R:1 pbc="T T T"
Si       0.16006554      -1.78215860      -1.53744595       0.00000000
Si       2.28879389       0.18762822       0.56879631       0.00000000
Si      -1.96255406      -0.50604885       1.23338989       0.00000000
Si      -0.92403397       1.69399712      -1.43846330       0.00000000
H        1.01367295       1.62766423       2.01829046       0.00000000
Si      -2.10975050      -1.62903259      -2.05194338       0.00000000
H        2.61848720       0.35464959       2.22239056       0.00000000
Si       0.27046287       1.29407761      -3.45053047       0.00000000
Si       1.33934426      -0.84481570      -3.34556049       0.00000000
Si      -2.95671648       0.63617338      -2.24982019       0.00000000
