10
Lattice="16.2900001489832 0.0 0.0 0.0 16.2900001489832 0.0 0.0 0.0 29.49423432800756" Properties=species:S:1:pos:R:3:initial_magmoms:R:1 pbc="T T T"
Si       1.54813645      -1.19819956       1.21820036       0.00000000
Si      -1.27386172      -1.42307324      -1.34478961       0.00000000
Si      -1.23896854       1.22613691       1.58153983       0.00000000
Si       1.33542163       1.40664640      -1.34251856       0.00000000
H        2.47024820       0.34263246       1.67462364       0.00000000
Si      -2.66729204       2.57432990       0.22684016       0.00000000
Si       0.34502220       2.39753453       2.85111915       0.00000000
Si      -2.69855255      -0.05918320      -2.62935200       0.00000000
Si       2.52196895       1.98112955       2.00976662       0.00000000
Si      -2.11069532      -3.15150741       0.03441977       0.00000000
