10
Lattice="16.2900001489832 0.0 0.0 0.0 16.2900001489832 0.0 0.0 0.0 29.49423432800756" Properties=species:S:1:pos:R:3:initial_magmoms:R:1 pbc="T T T"
Si      -1.38007252       1.30230406      -1.36478671       0.00000000
Si      -1.33542163      -1.40664640       1.34251856       0.00000000
Si       0.94529242       1.73226233       1.31963103       0.00000000
Si       1.45650520      -1.40473232      -1.24530556       0.00000000
H        1.13482657      -1.06401394       3.01714219       0.00000000
Si       1.18654732       0.57448315       3.35228518       0.00000000
Si       0.21271482      -2.60484596       2.56071892       0.00000000
Si      -2.63436995       2.57769704       0.21713655       0.00000000
Si       0.05947479       2.67283064      -2.65633923       0.00000000
Si      -2.68610699      -0.09560601      -2.71019570       0.00000000
