10
Lattice="16.2900001489832 0.0 0.0 0.0 16.2900001489832 0.0 0.0 0.0 29.49423432800756" Properties=species:S:1:pos:R:3:initial_magmoms:R:1 pbc="T T T"
Si       0.24125490      -1.15777918       2.03265415       0.00000000
Si       1.83171278       1.00321966      -1.10918967       0.00000000
Si      -0.94529242      -1.73226233      -1.31963103       0.00000000
Si      -1.77818384       1.68660146       0.25191026       0.00000000
H        0.18953415      -2.79627627       1.69751116       0.00000000
Si       0.46631754       2.29102562      -2.56939022       0.00000000
Si      -1.93569185      -0.74137420       2.87400668       0.00000000
Si      -2.32536494      -0.42995826      -2.68441774       0.00000000
H        2.51623487      -2.44141490       1.18964994       0.00000000
Si      -0.81593353       3.53339877      -0.97047829       0.00000000
