10
Lattice="16.2900001489832 0.0 0.0 0.0 16.2900001489832 0.0 0.0 0.0 29.49423432800756" Properties=species:S:1:pos:R:3:initial_magmoms:R:1 pbc="T T T"
Si      -0.54475390      -2.04010586      -1.11836238       0.00000000
Si      -2.08148735       0.83944488       0.83790170       0.00000000
Si       1.01020807       1.42049290      -1.64716450       0.00000000
H        1.70880473      -1.73388644       0.28739182       0.00000000
Si       1.20042640      -0.45368302       2.15555662       0.00000000
Si       2.91481860       1.30613710       1.58165781       0.00000000
Si      -0.49604679      -2.39745959       2.67111584       0.00000000
Si      -2.79730254      -1.75475393      -1.52405557       0.00000000
Si      -0.62232688      -3.56906899       0.62563170       0.00000000
Si       2.59419881       2.59189052      -0.37758519       0.00000000
