10
Lattice="16.2900001489832 0.0 0.0 0.0 16.2900001489832 0.0 0.0 0.0 29.49423432800756" Properties=species:S:1:pos:R:3:initial_magmoms:R:1 pbc="T T T"
Si       1.30872232       1.29712384      -1.48736474       0.00000000
Si      -1.35213517      -1.35045730      -1.40658004       0.00000000
Si       1.36539523      -1.28780596       1.46020055       0.00000000
Si      -1.28225107       1.24237315       1.59891194       0.00000000
Si      -0.46631754      -2.29102562       2.56939022       0.00000000
Si       0.64153279       2.15917436       2.73346665       0.00000000
Si      -2.24450138      -0.60442417       2.82130048       0.00000000
Si       2.42714486       0.39749229       2.84277228       0.00000000
Si       2.70645320       2.68021001      -0.17950191       0.00000000
Si       2.68845275      -2.71019990       0.08040128       0.00000000
