10
Lattice="16.2900001489832 0.0 0.0 0.0 16.2900001489832 0.0 0.0 0.0 29.49423432800756" Properties=species:S:1:pos:R:3:initial_magmoms:R:1 pbc="T T T"
H       -0.25671411       1.36451557      -0.63108813       0.00000000
Si       2.39223539      -0.09899433      -0.03781161       0.00000000
H       -0.13696632      -2.09155457       1.16009672       0.00000000
Si      -0.74929114       0.48425283       2.26663191       0.00000000
Si      -1.15227316      -1.54559521      -1.50470735       0.00000000
H        2.82242172      -0.18559197      -1.47674682       0.00000000
H       -2.42758469       1.62999370      -1.44085234       0.00000000
Si      -0.07672590       2.75338470       2.29736490       0.00000000
H        1.96519304       1.88641460      -2.57885787       0.00000000
Si      -3.51091857      -1.15204510      -1.25686730       0.00000000
