10
Lattice="16.2900001489832 0.0 0.0 0.0 16.2900001489832 0.0 0.0 0.0 29.49423432800756" Properties=species:S:1:pos:R:3:initial_magmoms:R:1 pbc="T T T"
Si      -1.24022287       1.29150379       1.51333737       0.00000000
Si       1.43571916       1.29515275      -1.39583234       0.00000000
Si      -1.94917997      -0.78033988      -1.13549381       0.00000000
Si       1.32647842      -1.46137591       1.34609031       0.00000000
Si      -2.53811234       2.66253536       0.09979669       0.00000000
Si       2.42592311      -0.24259068      -2.86727019       0.00000000
Si       0.06221151       2.56779272      -2.78710486       0.00000000
Si      -2.68589522      -2.70848945       0.11811556       0.00000000
Si       2.85071745       2.58147632       0.00816695       0.00000000
Si       0.15661206       2.60385878       2.82903977       0.00000000
