10
Lattice="16.2900001489832 0.0 0.0 0.0 16.2900001489832 0.0 0.0 0.0 29.49423432800756" Properties=species:S:1:pos:R:3:initial_magmoms:R:1 pbc="T T T"
Si       1.40843341       1.34765542       1.29839518       0.00000000
Si       1.29782431      -1.31468446      -1.49057961       0.00000000
Si      -1.20886462       1.42721578      -1.46294352       0.00000000
Si      -1.31119840      -1.28503666       1.55841635       0.00000000
Si      -2.64008774      -2.61508259       0.07633108       0.00000000
Si      -2.60569955       0.11486079      -2.77864592       0.00000000
Si       0.05053158       2.83876059       2.54464456       0.00000000
Si       2.81909856      -0.06436179       2.57068797       0.00000000
Si       2.72981307      -2.69316056      -0.23854937       0.00000000
Si      -2.64096740       2.79428889      -0.20982198       0.00000000
