10
Lattice="16.2900001489832 0.0 0.0 0.0 16.2900001489832 0.0 0.0 0.0 29.49423432800756" Properties=species:S:1:pos:R:3:initial_magmoms:R:1 pbc="T T T"
Si      -1.95481631      -0.43535025      -1.13703223       0.00000000
Si       1.77596840      -0.58121092      -1.45869635       0.00000000
Si      -0.21633120       2.38909142      -0.11390673       0.00000000
Si      -0.13486491      -0.75875563       2.29642108       0.00000000
Si       1.06754887       2.81134452       1.76965406       0.00000000
Si      -1.32141223       0.50075460      -3.24994019       0.00000000
Si       0.09150093       1.31870809       3.29695400       0.00000000
Si       3.60049728       0.13414815      -0.17313116       0.00000000
Si      -3.56869920       0.63087913       0.22710560       0.00000000
Si      -2.03401829      -2.74260072      -1.27597957       0.00000000
