10
Lattice="16.2900001489832 0.0 0.0 0.0 16.2900001489832 0.0 0.0 0.0 29.49423432800756" Properties=species:S:1:pos:R:3:initial_magmoms:R:1 pbc="T T T"
Si      -0.99020395       1.53774343       1.47143786       0.00000000
Si       1.20730078       0.90051121      -1.81489822       0.00000000
Si       1.54411282      -1.29929041       1.34372782       0.00000000
Si      -1.92166616      -0.66772711      -1.35455221       0.00000000
Si      -1.23427702      -2.78155011      -2.03191679       0.00000000
Si      -2.36371160       2.81038341       0.08016533       0.00000000
Si      -2.42592311       0.24259068       2.86727019       0.00000000
Si       0.19163556      -2.61091235       2.77280016       0.00000000
Si       0.64734832      -0.12799053      -3.87872777       0.00000000
Si      -1.67817953       0.31560246      -3.54927717       0.00000000
