10
Lattice="16.2900001489832 0.0 0.0 0.0 16.2900001489832 0.0 0.0 0.0 29.49423432800756" Properties=species:S:1:pos:R:3:initial_magmoms:R:1 pbc="T T T"
Si       1.37028223      -1.37464795      -1.35059408       0.00000000
Si       1.34231230       1.31963662       1.43373538       0.00000000
Si      -1.31242015       1.37323072      -1.43344043       0.00000000
Si      -1.32382315      -1.35226549       1.47027873       0.00000000
Si       2.68511330       2.66597255       0.06067554       0.00000000
Si      -2.68931612       2.67286322       0.00783367       0.00000000
Si       2.58838328      -2.78120802       0.08493455       0.00000000
Si      -2.72065808      -2.66462048       0.15457633       0.00000000
Si      -0.04471605      -2.66097152      -2.75459337       0.00000000
Si      -2.75592594       0.01480761       2.72340027       0.00000000
