10
Lattice="16.2900001489832 0.0 0.0 0.0 16.2900001489832 0.0 0.0 0.0 29.49423432800756" Properties=species:S:1:pos:R:3:initial_magmoms:R:1 pbc="T T T"
Si      -1.32558247      -0.81847477      -1.79498961       0.00000000
Si      -0.59724028       2.30570291       0.10314134       0.00000000
Si      -0.63340408      -0.93610486       2.11290796       0.00000000
Si       2.39930525      -0.06107121      -0.29739036       0.00000000
H       -0.91530253       2.80893360       1.47993220       0.00000000
Si       1.32141223      -0.50075460       3.24994019       0.00000000
H       -0.15460839      -3.43564248      -1.15567258       0.00000000
Si      -2.16145496       1.11969316      -2.76647070       0.00000000
Si      -3.11797119      -1.92332774      -0.70815657       0.00000000
Si       3.09738063      -1.08196552       1.79124384       0.00000000
