10
Lattice="16.2900001489832 0.0 0.0 0.0 16.2900001489832 0.0 0.0 0.0 29.49423432800756" Properties=species:S:1:pos:R:3:initial_magmoms:R:1 pbc="T T T"
Si       1.65597626       1.17289630       1.14068951       0.00000000
Si       1.40082598      -1.31531977      -1.39112506       0.00000000
Si      -1.15067674       1.47305584      -1.48010916       0.00000000
Si      -1.39365838      -0.72369955       1.88418017       0.00000000
Si       0.40509972       2.51897159       2.57844495       0.00000000
Si      -1.66851956       1.48918294       2.91559355       0.00000000
Si       2.71769668      -0.50526693       2.44577989       0.00000000
Si      -3.57238074      -0.67606759       0.82309560       0.00000000
Si      -2.58830183       0.19836333      -2.85026382       0.00000000
Si       2.89376540      -2.59564862      -0.09706553       0.00000000
