10
Lattice="16.2900001489832 0.0 0.0 0.0 16.2900001489832 0.0 0.0 0.0 29.49423432800756" Properties=species:S:1:pos:R:3:initial_magmoms:R:1 pbc="T T T"
H       -0.11354130      -0.80244541       1.28246830       0.00000000
Si      -1.80273287       1.44225145       0.14092345       0.00000000
Si       2.26826849       0.48268899      -0.19722794       0.00000000
Si      -0.47043891      -1.43834185      -1.81153587       0.00000000
H       -1.48563172      -2.40099941      -1.25226620       0.00000000
Si       1.63031950      -2.43001190      -1.80357243       0.00000000
Si       3.03963258      -1.74202004      -0.06515276       0.00000000
Si       2.23417352       1.21950199      -2.42572381       0.00000000
Si      -3.53256798      -0.15991893       0.00303791       0.00000000
H       -3.27321489      -0.96699070      -1.25772263       0.00000000
