10
Lattice="16.2900001489832 0.0 0.0 0.0 16.2900001489832 0.0 0.0 0.0 29.49423432800756" Properties=species:S:1:pos:R:3:initial_magmoms:R:1 pbc="T T T"
Si       1.30652154       1.35695701      -1.42326492       0.00000000
Si       1.33260998      -1.26900730       1.48037756       0.00000000
Si      -0.75585601      -1.85373686      -1.27428542       0.00000000
Si      -1.53503929       1.35540946       1.23527752       0.00000000
Si       2.67937922      -2.61798873       0.08755953       0.00000000
Si      -2.66154167      -2.67808254      -0.06565711       0.00000000
Si      -0.14991687       2.71073747       2.63826811       0.00000000
Si       2.64424007       2.75889072      -0.05815968       0.00000000
Si      -0.09171270      -2.67472517       2.75196838       0.00000000
Si      -0.12502575       2.66219327      -2.81152904       0.00000000
