10
Lattice="16.2900001489832 0.0 0.0 0.0 16.2900001489832 0.0 0.0 0.0 29.49423432800756" Properties=species:S:1:pos:R:3:initial_magmoms:R:1 pbc="T T T"
Si       1.35961228      -1.36765466       1.36059852       0.00000000
Si       1.42432268       1.40571787      -1.27159082       0.00000000
Si      -1.34716672       1.37908372       1.39428094       0.00000000
Si      -1.35389449      -1.41219152      -1.35651357       0.00000000
Si      -2.56982897      -0.00335737      -2.81762550       0.00000000
Si       2.67302775       0.01760786       2.73939499       0.00000000
Si       0.07723089      -2.72330847      -2.69807062       0.00000000
Si      -2.70161507       2.72660882      -0.00474857       0.00000000
Si       0.09171270       2.67472517      -2.75196838       0.00000000
Si       2.77109193       0.05673644      -2.66440885       0.00000000
