10
Lattice="16.2900001489832 0.0 0.0 0.0 16.2900001489832 0.0 0.0 0.0 29.49423432800756" Properties=species:S:1:pos:R:3:initial_magmoms:R:1 pbc="T T T"
Si       1.38159254      -1.37384974       1.33779948       0.00000000
Si      -1.30274389      -1.35278677      -1.45096886       0.00000000
Si       1.31888256       1.35154873      -1.43890572       0.00000000
Si      -1.32305752       1.42239394       1.37979927       0.00000000
Si      -2.64355751      -2.71782037      -0.07594765       0.00000000
Si       2.71080263       2.65279394      -0.04241271       0.00000000
Si      -2.68845275       2.71019990      -0.08040128       0.00000000
Si       2.71745058      -2.71426263      -0.10585481       0.00000000
Si       2.71398896      -0.03114648       2.73508883       0.00000000
Si       2.76421429       0.02777445      -2.73500035       0.00000000
