10
Lattice="16.2900001489832 0.0 0.0 0.0 16.2900001489832 0.0 0.0 0.0 29.49423432800756" Properties=species:S:1:pos:R:3:initial_magmoms:R:1 pbc="T T T"
H       -0.17987418       1.14082129      -0.99053437       0.00000000
Si      -1.57429819      -1.24128172      -1.22949665       0.00000000
Si       2.35864541      -0.39355011      -0.24784005       0.00000000
Si      -0.96326029       0.87889438       2.02589997       0.00000000
H        1.08333388       2.78203881      -0.18398503       0.00000000
H        0.20771379      -1.73827334       2.66521699       0.00000000
Si      -1.79913278       2.81706231       1.05441888       0.00000000
Si      -0.19095138      -2.53894313      -2.61156698       0.00000000
Si      -0.07978842       3.71495082      -0.28863058       0.00000000
Si       3.51091857       1.15204510       1.25686730       0.00000000
