10
Lattice="16.2900001489832 0.0 0.0 0.0 16.2900001489832 0.0 0.0 0.0 29.49423432800756" Properties=species:S:1:pos:R:3:initial_magmoms:R:1 pbc="T T T"
H       -0.79433299      -0.47659653       1.19728895       0.00000000
Si       0.51333048      -1.88841827      -1.40180197       0.00000000
Si       2.08029818       0.92704762       0.78817442       0.00000000
Si      -1.30114747       1.44060616      -1.43371473       0.00000000
H       -1.58524507      -2.63800262       0.80569400       0.00000000
Si      -1.26718282      -3.14123331      -0.57109686       0.00000000
Si       2.41655636       2.22044105      -1.13128085       0.00000000
H       -0.78338611       0.55959409       3.39932848       0.00000000
Si      -1.42742755       0.26899677      -3.47919887       0.00000000
Si       2.44649738      -2.72279207       1.32547089       0.00000000
