10
Lattice="16.2900001489832 0.0 0.0 0.0 16.2900001489832 0.0 0.0 0.0 29.49423432800756" Properties=species:S:1:pos:R:3:initial_magmoms:R:1 pbc="T T T"
Si      -0.28548225       1.36370107      -1.95304921       0.00000000
Si      -2.01989486      -0.69903649       1.13163478       0.00000000
Si       0.58456666       1.75461221       1.63368564       0.00000000
Si       1.67593151      -1.92570608       0.05385647       0.00000000
H       -0.02612916       0.55662931      -3.21380975       0.00000000
H        3.13354443       0.72117460      -0.67361882       0.00000000
Si       0.31752468      -3.07822359       1.68892834       0.00000000
H       -1.25283133      -1.05700924      -3.16080861       0.00000000
Si      -1.07510743      -1.74003266       3.03891239       0.00000000
H        1.76145401      -0.87737941      -3.20835332       0.00000000
