10
Lattice="16.2900001489832 0.0 0.0 0.0 16.2900001489832 0.0 0.0 0.0 29.49423432800756" Properties=species:S:1:pos:R:3:initial_magmoms:R:1 pbc="T T T"
Si       2.32400798      -0.58961656       0.13729566       0.00000000
Si      -1.30662091      -1.73307031       1.04722228       0.00000000
Si      -0.56832390       2.28117669       0.59250967       0.00000000
Si      -0.76987029       0.55220494      -2.29928203       0.00000000
Si      -0.37198541       2.86396773      -1.91237666       0.00000000
Si      -0.57606165      -3.72885597       0.04140990       0.00000000
Si      -2.96010968       2.17060017       0.91019207       0.00000000
Si      -3.88160241       0.58884115      -0.48296809       0.00000000
Si       2.90025045      -2.31056711      -1.40118259       0.00000000
Si       3.74516389       0.92713558      -0.94154444       0.00000000
