10
Lattice="16.2900001489832 0.0 0.0 0.0 16.2900001489832 0.0 0.0 0.0 29.49423432800756" Properties=species:S:1:pos:R:3:initial_magmoms:R:1 pbc="T T T"
Si      -1.35247726      -1.31162194       1.42907234       0.00000000
Si       1.51609402      -1.37691226      -1.26400491       0.00000000
Si      -1.54411282       1.29929041      -1.34372782       0.00000000
Si       1.35290080       1.38693061       1.46775108       0.00000000
Si      -2.53431677       2.83703385       0.12771003       0.00000000
Si      -0.33681204       2.19980162      -3.15862604       0.00000000
Si       0.10608048      -2.68369607       2.78280165       0.00000000
Si      -2.97834960      -2.50510880       0.07161200       0.00000000
Si      -2.64355751       0.08050518       2.86963268       0.00000000
Si       0.34093341      -3.09057141      -2.43861279       0.00000000
