10
Lattice="16.2900001489832 0.0 0.0 0.0 16.2900001489832 0.0 0.0 0.0 29.49423432800756" Properties=species:S:1:pos:R:3:initial_magmoms:R:1 pbc="T T T"
Si       1.61388289      -1.06622938      -1.36413783       0.00000000
Si      -2.14171148       0.34503849      -0.95045170       0.00000000
Si      -0.70379317      -1.51681078       1.70199429       0.00000000
Si       1.11140155       2.03691791       0.68314546       0.00000000
Si      -0.52895259       3.54688689      -0.20760992       0.00000000
H        1.33198444       2.67880907      -1.99711359       0.00000000
Si       3.56869920      -0.63087913      -0.22710560       0.00000000
H        0.54424890       0.71684146       3.62115462       0.00000000
Si      -2.29280123       2.59885775      -1.53116368       0.00000000
Si       3.35236800       1.75821230      -0.34101234       0.00000000
