10
Lattice="16.2900001489832 0.0 0.0 0.0 16.2900001489832 0.0 0.0 0.0 29.49423432800756" Properties=species:S:1:pos:R:3:initial_magmoms:R:1 pbc="T T T"
Si      -1.21301857       1.54412911      -1.30877715       0.00000000
Si       1.63626535      -1.08535384      -1.33526298       0.00000000
Si       1.12269052       1.30267873       1.64619119       0.00000000
Si      -1.40955742      -1.42257802       1.33962812       0.00000000
Si       2.52986960       2.47518407      -1.14313753       0.00000000
Si      -2.78609502       2.50849712       0.11573538       0.00000000
Si       0.36999477       3.26405991      -1.82793467       0.00000000
Si       2.37746036      -0.14906979       2.94374284       0.00000000
Si       2.58199760      -2.77897498       0.03397736       0.00000000
Si       0.90872137      -1.43064646      -3.51653857       0.00000000
