10
Lattice="16.2900001489832 0.0 0.0 0.0 16.2900001489832 0.0 0.0 0.0 29.49423432800756" Properties=species:S:1:pos:R:3:initial_magmoms:R:1 pbc="T T T"
Si       1.33968961       1.38147346      -1.33054390       0.00000000
Si      -1.39473352       1.39911553       1.26418187       0.00000000
Si      -1.35819505      -1.27073404      -1.47513938       0.00000000
Si       1.39403305      -1.29103138       1.42368669       0.00000000
Si      -2.67851911      -2.60741000      -0.04326804       0.00000000
Si       2.69197139      -2.59542056      -0.10529442       0.00000000
Si       0.00526167       2.72979677       2.62840819       0.00000000
Si      -2.73193076       0.01760949       2.64931960       0.00000000
Si      -2.72815148       2.72052776      -0.20315629       0.00000000
Si       0.03702717      -2.74919817       2.71161142       0.00000000
