10
Lattice="16.2900001489832 0.0 0.0 0.0 16.2900001489832 0.0 0.0 0.0 29.49423432800756" Properties=species:S:1:pos:R:3:initial_magmoms:R:1 pbc="T T T"
Si      -1.33082785       1.39002571      -1.38298465       0.00000000
Si       1.38162007       1.39566205       1.33119277       0.00000000
Si       1.36099693      -1.29205765      -1.46834096       0.00000000
Si      -1.37966527      -1.36143676       1.41489741       0.00000000
Si       2.72853267      -2.64365525      -0.10272842       0.00000000
Si      -2.73756711       0.12966840       2.66114679       0.00000000
Si       2.65454333      -0.00790065       2.75956905       0.00000000
Si      -0.08475687      -2.71081892      -2.73178548       0.00000000
Si       0.03099987      -2.77345398       2.68719020       0.00000000
Si       0.01197315       2.73636165      -2.75604449       0.00000000
