10
Lattice="16.2900001489832 0.0 0.0 0.0 16.2900001489832 0.0 0.0 0.0 29.49423432800756" Properties=species:S:1:pos:R:3:initial_magmoms:R:1 pbc="T T T"
Si       0.98443729      -1.73259138       1.21743351       0.00000000
Si      -1.97547203       0.93366462       0.87046334       0.00000000
Si       1.78287878       1.51255584      -0.38115399       0.00000000
Si      -0.23271894      -1.23240693      -2.03020613       0.00000000
Si       3.15683261      -0.11906361      -1.43288889       0.00000000
Si       3.22864056      -1.80208452       0.42731247       0.00000000
H       -3.33063714      -1.69742127      -0.13346141       0.00000000
Si      -0.34982775      -3.64410887       0.77991604       0.00000000
Si       1.94017486      -1.33806387      -2.95305122       0.00000000
Si      -2.05687316       3.17066608       0.15437282       0.00000000
