10
Lattice="16.2900001489832 0.0 0.0 0.0 16.2900001489832 0.0 0.0 0.0 29.49423432800756" Properties=species:S:1:pos:R:3:initial_magmoms:R:1 pbc="T T T"
Si      -1.01996578       1.77386699      -1.15313608       0.00000000
Si      -0.05255154       0.31400604       2.35334496       0.00000000
Si      -1.45016839      -1.87288461      -0.24138081       0.00000000
Si       2.08148735      -0.83944488      -0.83790170       0.00000000
Si      -0.71581519      -2.59419881      -2.36195727       0.00000000
Si      -0.89746498      -2.92369665       1.89370681       0.00000000
Si      -2.54140292       0.60856183      -2.49022770       0.00000000
H        2.06203709       2.72991080       1.43701808       0.00000000
Si       2.16567407      -0.07578108       3.05613357       0.00000000
Si       3.28191375      -1.29312790       1.31765492       0.00000000
