10
Lattice="16.2900001489832 0.0 0.0 0.0 16.2900001489832 0.0 0.0 0.0 29.49423432800756" Properties=species:S:1:pos:R:3:initial_magmoms:R:1 pbc="T T T"
Si      -2.21822561       0.38978712      -0.70278862       0.00000000
Si       0.57686149       2.27110295      -0.34791399       0.00000000
Si       1.11623968      -1.21734682      -1.73847865       0.00000000
Si      -0.34401222      -0.65354503       2.30730446       0.00000000
H       -0.10363698       2.80569189      -1.61911549       0.00000000
Si      -0.66163465       2.99797905       1.51051772       0.00000000
Si      -0.58023352      -3.16112340      -1.22291944       0.00000000
H        3.31965768       0.10331118       1.20548835       0.00000000
Si      -2.59444316       2.51071256       0.25657034       0.00000000
Si      -0.12704571       1.50965947       3.30993146       0.00000000
