10
Lattice="16.2900001489832 0.0 0.0 0.0 16.2900001489832 0.0 0.0 0.0 29.49423432800756" Properties=species:S:1:pos:R:3:initial_magmoms:R:1 pbc="T T T"
Si      -1.82452889      -0.71535907      -1.28556519       0.00000000
Si      -0.53743968       2.19235709       0.71207930       0.00000000
Si       2.02201256      -0.42529932      -1.15472877       0.00000000
Si       0.36400005      -1.48633219       1.83280122       0.00000000
Si      -0.89632468      -2.80484481      -1.71184536       0.00000000
Si       1.33418359      -2.35610417      -2.35145733       0.00000000
Si       2.39668256      -0.42850845       2.64415811       0.00000000
Si      -3.60049728      -0.13414815       0.17313116       0.00000000
Si      -1.80546959       3.09075060      -1.07709994       0.00000000
Si       3.59117940      -0.82842796       0.63209094       0.00000000
