10
Lattice="16.2900001489832 0.0 0.0 0.0 16.2900001489832 0.0 0.0 0.0 29.49423432800756" Properties=species:S:1:pos:R:3:initial_magmoms:R:1 pbc="T T T"
H        0.41416185      -1.55276281      -0.75991895       0.00000000
Si       2.10516324       1.17489997      -0.57802800       0.00000000
Si      -0.24214434      -0.47693862       2.48769119       0.00000000
Si      -1.70340622       0.54765351      -1.82277318       0.00000000
H        2.28360390      -0.43539912       1.42368669       0.00000000
H       -1.43823760      -2.57696399       0.53700152       0.00000000
H       -3.02058305       0.79995304       0.54525991       0.00000000
Si       1.27189063      -2.59118516      -1.85005534       0.00000000
Si       1.20938264       2.76223017      -2.05568914       0.00000000
Si      -0.18020226       1.47450565      -3.39667400       0.00000000
