10
Lattice="16.2900001489832 0.0 0.0 0.0 16.2900001489832 0.0 0.0 0.0 29.49423432800756" Properties=species:S:1:pos:R:3:initial_magmoms:R:1 pbc="T T T"
Si       1.06316686      -0.11166795      -2.08597972       0.00000000
Si      -2.32906277      -0.28527048      -0.35950522       0.00000000
Si       0.24026121       2.37390914       0.53207599       0.00000000
Si       0.48578409      -2.12894989       1.22085484       0.00000000
Si       3.34309899      -0.48073419      -1.41787633       0.00000000
Si      -3.24666219       0.28331568       1.77086332       0.00000000
Si      -1.70989616       3.23332068      -0.68031401       0.00000000
Si      -2.56813481      -2.58416092      -0.86527235       0.00000000
Si      -3.09379683       1.49012776      -1.70509118       0.00000000
Si      -0.05294250       2.56575647       2.90945875       0.00000000
