10
Lattice="16.2900001489832 0.0 0.0 0.0 16.2900001489832 0.0 0.0 0.0 29.49423432800756" Properties=species:S:1:pos:R:3:initial_magmoms:R:1 pbc="T T T"
Si       1.33426504       1.91151749       0.43751747       0.00000000
Si       1.58827501      -1.78476500       0.09644615       0.00000000
Si      -0.81456517       0.27334620      -2.24875840       0.00000000
Si      -1.41700195      -0.34749828       1.93659143       0.00000000
Si       0.15208344      -3.20966760      -1.40085815       0.00000000
H        2.70459777      -0.65124163      -2.38938691       0.00000000
Si       1.63675406       1.76920805       2.76561536       0.00000000
Si      -1.10669374      -2.65582388       2.27589310       0.00000000
H       -2.98080939       1.94668760      -0.91337745       0.00000000
Si       0.11710881       2.41170194      -2.81012216       0.00000000
