10
Lattice="16.2900001489832 0.0 0.0 0.0 16.2900001489832 0.0 0.0 0.0 29.49423432800756" Properties=species:S:1:pos:R:3:initial_magmoms:R:1 pbc="T T T"
Si      -1.29546878      -1.35392707      -1.38184027       0.00000000
Si      -1.44533173       1.32377428       1.29609463       0.00000000
Si       1.36898229      -1.43203762       1.27541917       0.00000000
Si       1.32032406       1.33667596      -1.43187134       0.00000000
Si       2.67851911       2.60741000       0.04326804       0.00000000
Si      -0.05341165       2.62501949       2.69258764       0.00000000
Si      -0.04676370      -2.74203708       2.62914554       0.00000000
Si      -2.77799563       2.62581770      -0.22394972       0.00000000
Si       2.66402101      -0.04168611      -2.79422772       0.00000000
Si       2.71554628      -0.14178816       2.75487946       0.00000000
