10
Lattice="16.2900001489832 0.0 0.0 0.0 16.2900001489832 0.0 0.0 0.0 29.49423432800756" Properties=species:S:1:pos:R:3:initial_magmoms:R:1 pbc="T T T"
H        0.05339862       1.32598972      -0.74136707       0.00000000
Si       2.19678797      -0.02953377       0.79038649       0.00000000
Si      -0.83499283      -1.50519601      -1.60719982       0.00000000
Si      -1.47417985       0.46340163       1.78440118       0.00000000
H       -0.65655217      -3.11549511       0.39451488       0.00000000
H        2.03388797       2.48158604      -0.58540156       0.00000000
H       -1.77797858       2.43061463      -1.39425145       0.00000000
Si       1.93929194       1.68775805       2.32567937       0.00000000
Si      -1.73077342       0.08213418      -3.08486096       0.00000000
Si      -3.41930361       1.24372522       0.67709914       0.00000000
