10
Lattice="16.2900001489832 0.0 0.0 0.0 16.2900001489832 0.0 0.0 0.0 29.49423432800756" Properties=species:S:1:pos:R:3:initial_magmoms:R:1 pbc="T T T"
Si       0.98660712      -0.28028574      -2.07597675       0.00000000
Si       1.92057473       0.84084094       1.10348991       0.00000000
Si      -0.96760972      -1.90216703       1.06282916       0.00000000
Si      -1.63862740       1.79698250      -0.08353976       0.00000000
Si      -2.22172796      -0.57230029       2.56231603       0.00000000
Si       0.69006233       2.24705891       2.56182643       0.00000000
Si      -3.43982901       0.83425978       1.12678741       0.00000000
Si       1.89185709       1.74641834      -2.80395345       0.00000000
Si       3.32425146       1.74703736      -0.62604019       0.00000000
Si      -0.69387256       3.56376333       1.19649998       0.00000000
