10
Lattice="16.2900001489832 0.0 0.0 0.0 16.2900001489832 0.0 0.0 0.0 29.49423432800756" Properties=species:S:1:pos:R:3:initial_magmoms:R:1 pbc="T T T"
Si       1.32936175      -1.36301689       1.40807244       0.00000000
Si      -1.92057473      -0.84084094      -1.10348991       0.00000000
Si      -1.23051240       1.40621797       1.45833652       0.00000000
Si       1.40367673       0.90619642      -1.72953010       0.00000000
Si      -0.93396761      -1.12112668      -3.17946666       0.00000000
Si       2.63076986       2.56197719      -0.25174804       0.00000000
Si      -2.61444728       2.72292239       0.09301007       0.00000000
Si      -2.69654888       0.00562005       2.72227064       0.00000000
Si      -3.55920213       0.95614156      -1.18702967       0.00000000
Si       2.71402805      -0.00154755       2.76553868       0.00000000
