10
Lattice="16.2900001489832 0.0 0.0 0.0 16.2900001489832 0.0 0.0 0.0 29.49423432800756" Properties=species:S:1:pos:R:3:initial_magmoms:R:1 pbc="T T T"
Si      -1.38958491      -1.28772451      -1.34098486       0.00000000
Si       0.89578059      -1.58733019       1.47766114       0.00000000
Si      -1.22842565       1.42296409       1.43917116       0.00000000
Si       1.44509569       1.40818906      -1.25571703       0.00000000
H       -0.04720516       2.34848045       1.69060951       0.00000000
H        1.78417204       1.24385554       2.34349388       0.00000000
Si       1.73077342      -0.08213418       3.08486096       0.00000000
Si      -1.20938264      -2.76223017       2.05568914       0.00000000
Si      -2.91278886      -2.21457665       0.23291597       0.00000000
Si       0.05932166      -2.66947490      -2.57186774       0.00000000
