10
Lattice="16.2900001489832 0.0 0.0 0.0 16.2900001489832 0.0 0.0 0.0 29.49423432800756" Properties=species:S:1:pos:R:3:initial_magmoms:R:1 pbc="T T T"
Si      -0.72754399      -0.34529262      -2.18127559       0.00000000
Si       0.94573225      -1.69362114       1.36924033       0.00000000
Si      -1.63626535       1.08535384       1.33526298       0.00000000
Si       1.80597458       1.48789603      -0.47801306       0.00000000
Si       2.11535426      -0.27825112       2.85091269       0.00000000
Si       1.03514806      -1.78803929      -2.97434606       0.00000000
Si       0.89360425       3.56053791       0.19212544       0.00000000
Si       3.34068807       1.03770559       1.29355813       0.00000000
Si      -0.51357483       2.38803257       2.98145417       0.00000000
Si      -2.84928393       2.62948295       0.02648582       0.00000000
