10
Lattice="16.2900001489832 0.0 0.0 0.0 16.2900001489832 0.0 0.0 0.0 29.49423432800756" Properties=species:S:1:pos:R:3:initial_magmoms:R:1 pbc="T T T"
Si       0.61418188      -2.22609368       0.38988428       0.00000000
Si      -2.28908711      -0.05659146       0.50818566       0.00000000
Si      -0.10538001       0.20435805      -2.34688572       0.00000000
Si       1.17516061       1.71365915       1.17460788       0.00000000
Si      -3.11932326       1.60831171      -0.93703182       0.00000000
Si       2.60670790       0.40842288       2.56287200       0.00000000
Si      -1.13264371      -3.49002502      -0.56434268       0.00000000
Si      -1.69143959       1.92831248      -2.72753831       0.00000000
Si      -3.07261983      -2.16643970      -0.18466340       0.00000000
Si       2.88631761      -2.62684397      -0.16448934       0.00000000
