10
Lattice="16.2900001489832 0.0 0.0 0.0 16.2900001489832 0.0 0.0 0.0 29.49423432800756" Properties=species:S:1:pos:R:3:initial_magmoms:R:1 pbc="T T T"
Si      -1.46067544       1.34350147       1.27303014       0.00000000
Si       1.30588786       1.34413678      -1.43282990       0.00000000
Si      -1.38101734      -1.37885077      -1.33706212       0.00000000
Si       1.39417966      -1.35573526       1.36337098       0.00000000
Si       2.63239886       2.68722449      -0.03669083       0.00000000
Si      -2.69076268      -0.10881720       2.65748950       0.00000000
Si       2.67848327      -2.68990256      -0.07848416       0.00000000
Si      -2.68979505       0.02119329      -2.71140496       0.00000000
Si      -0.20799072       2.60550733       2.79148181       0.00000000
Si      -0.08070066       2.66873860      -2.80537359       0.00000000
