10
Lattice="16.28999089631971 0.0 0.0 0.0 16.28999089631971 0.0 0.0 0.0 34.397273925272025" Properties=species:S:1:pos:R:3:initial_magmoms:R:1 pbc="T T T"
Si      -1.35811359      -1.35656930       1.35690442       0.00000000
Si       1.35747828      -1.35735448      -1.35721400       0.00000000
Si       1.35760860       1.35795069       1.35738598       0.00000000
Si      -1.35827649       1.35790182      -1.35724839       0.00000000
Si       2.70775638       0.00263898       2.71418721       0.00000000
Si      -0.00156384       2.71441899       2.71398083       0.00000000
Si       2.71419093       2.71495656       0.00048156       0.00000000
Si       2.71464705      -2.71486466       0.00044716       0.00000000
Si      -2.71451673       2.71507059      -0.00065355       0.00000000
Si      -2.71578735       0.00063531      -2.71384324       0.00000000
