10
Lattice="16.28999089631971 0.0 0.0 0.0 16.28999089631971 0.0 0.0 0.0 34.397273925272025" Properties=species:S:1:pos:R:3:initial_magmoms:R:1 pbc="T T T"
Si      -1.37239992       1.30181535      -1.43804763       0.00000000
Si      -1.61718975      -1.04435190       1.45139378       0.00000000
Si       1.34801379      -1.40277751      -1.43316322       0.00000000
Si       1.71569538       1.17037134       1.25271502       0.00000000
Si       0.34642314      -1.85743793       2.43618829       0.00000000
Si       0.46706688       2.56909590       2.65437032       0.00000000
Si      -2.67814116      -2.70945983       0.07502050       0.00000000
Si      -2.89365786       2.50431057      -0.03329658       0.00000000
Si       2.96924346      -2.42391128      -0.01475644       0.00000000
Si      -0.01031157       2.65833252      -2.80616557       0.00000000
