10
Lattice="16.28999089631971 0.0 0.0 0.0 16.28999089631971 0.0 0.0 0.0 34.397273925272025" Properties=species:S:1:pos:R:3:initial_magmoms:R:1 pbc="T T T"
Si       1.62347769       1.69339763      -0.15351512       0.00000000
Si      -1.21533174       1.16755643       1.67346271       0.00000000
Si      -1.34768799      -0.05406651      -1.96491097       0.00000000
Si       0.45734175      -2.25683682       0.73496696       0.00000000
Si       2.85135273       1.11313154       1.76323964       0.00000000
Si      -1.64608821      -2.94460062       1.71553060       0.00000000
Si      -3.40863363       0.35107231       1.79670821       0.00000000
Si      -1.44814842       3.43968563       1.09833997       0.00000000
Si       0.70087725       3.85934861       0.27101627       0.00000000
Si      -0.27484488       1.08183845      -3.80908745       0.00000000
