10
Lattice="16.28999089631971 0.0 0.0 0.0 16.28999089631971 0.0 0.0 0.0 34.397273925272025" Properties=species:S:1:pos:R:3:initial_magmoms:R:1 pbc="T T T"
Si      -1.37924172      -0.92476049      -1.63844626       0.00000000
Si       0.55508175       2.17034928      -0.77307916       0.00000000
Si      -1.22486139       0.31622148       2.03879636       0.00000000
Si       2.00948553      -1.35308324      -0.16218324       0.00000000
Si      -0.78310917      -3.19341734      -1.17962077       0.00000000
Si       0.76028688       3.27191166       1.20541874       0.00000000
Si      -1.32216156       2.70244584       1.98922986       0.00000000
Si       3.08232864      -0.21717828      -2.00635971       0.00000000
Si      -0.99261486       0.71964333      -3.47508973       0.00000000
Si      -0.05146011      -0.94794442       3.59943595       0.00000000
