10
Lattice="16.28999089631971 0.0 0.0 0.0 16.28999089631971 0.0 0.0 0.0 34.397273925272025" Properties=species:S:1:pos:R:3:initial_magmoms:R:1 pbc="T T T"
Si       1.35917244      -1.35646830      -1.35659484       0.00000000
Si      -1.35710361       1.35954711      -1.36000018       0.00000000
Si      -1.36208835      -1.35651717       1.36811794       0.00000000
Si       1.36625859       1.35519768       1.36529736       0.00000000
Si      -0.05307282       2.64723903       2.71367125       0.00000000
Si      -2.70602964       2.70708849      -0.00227022       0.00000000
Si       2.70932022      -2.71178001       0.00020638       0.00000000
Si      -2.71226871      -2.71480995       0.00227022       0.00000000
Si      -2.71295289       0.00065160      -2.71463438       0.00000000
Si       0.00156384      -2.71441899      -2.71398083       0.00000000
