10
Lattice="16.28999089631971 0.0 0.0 0.0 16.28999089631971 0.0 0.0 0.0 34.397273925272025" Properties=species:S:1:pos:R:3:initial_magmoms:R:1 pbc="T T T"
Si      -0.20520513      -1.10156238      -1.97849790       0.00000000
Si      -2.08244844      -0.56946582       0.78381112       0.00000000
Si       1.14873822      -1.13124276       1.69564896       0.00000000
Si       0.68808960       2.26305567      -0.11798272       0.00000000
Si      -2.02041612       0.67041495       2.72354327       0.00000000
Si       3.29776389      -0.71157978       0.86832527       0.00000000
Si      -0.02748123      -0.21030390       3.55736806       0.00000000
Si      -0.76028688      -3.27191166      -1.20541874       0.00000000
Si       1.96216308      -1.08776475      -2.81108439       0.00000000
Si       3.36041523       0.19013688      -1.31483653       0.00000000
