10
Lattice="16.28999089631971 0.0 0.0 0.0 16.28999089631971 0.0 0.0 0.0 34.397273925272025" Properties=species:S:1:pos:R:3:initial_magmoms:R:1 pbc="T T T"
Si       2.28235932      -0.45128187       0.09999293       0.00000000
Si       0.21390399       2.06966079      -1.09039419       0.00000000
Si      -0.60297435       0.16734717       2.28232919       0.00000000
Si      -1.33602435      -1.85378571      -0.75619009       0.00000000
Si       2.69395875      -0.39679182      -2.20053243       0.00000000
Si      -0.31311009      -3.43688212       0.61079273       0.00000000
Si      -0.35626230      -2.16963252       2.73843730       0.00000000
Si      -2.03045076       2.59506216      -1.42783164       0.00000000
Si       1.42804656       1.44401076      -3.02613626       0.00000000
Si      -3.50295273      -1.10169270      -0.19475747       0.00000000
