10
Lattice="16.28999089631971 0.0 0.0 0.0 16.28999089631971 0.0 0.0 0.0 34.397273925272025" Properties=species:S:1:pos:R:3:initial_magmoms:R:1 pbc="T T T"
Si      -1.35654975      -1.34975682      -1.38352793       0.00000000
Si       1.36129014       1.35832536      -1.38421587       0.00000000
Si       1.31457042      -1.49305995       1.32770112       0.00000000
Si      -1.29551112       1.36440153       1.53301856       0.00000000
Si      -2.70550836       2.71055826       0.00935606       0.00000000
Si      -2.72528442      -2.71471221      -0.00729223       0.00000000
Si      -2.71044423       0.00122175      -2.74400966       0.00000000
Si       0.00667890      -2.71653669      -2.74280576       0.00000000
Si       2.72077209       2.73860964      -0.01114472       0.00000000
Si       0.00420282       2.71648782      -2.74459442       0.00000000
