10
Lattice="16.28999089631971 0.0 0.0 0.0 16.28999089631971 0.0 0.0 0.0 34.397273925272025" Properties=species:S:1:pos:R:3:initial_magmoms:R:1 pbc="T T T"
Si      -0.09044208      -0.90759735      -2.15034678       0.00000000
Si       0.45774900      -1.44052470       1.82770017       0.00000000
Si      -2.42038449      -0.16620687       0.39450256       0.00000000
Si       1.55628144       1.93989465       0.14814914       0.00000000
Si      -0.28175184       3.31801236      -0.27321770       0.00000000
Si      -2.29283379       0.84248622       2.51612760       0.00000000
Si      -0.51104988      -0.25215291       3.57841920       0.00000000
Si      -1.71839952       2.90822112       1.60913977       0.00000000
Si      -0.80601291      -3.38095692       1.52500399       0.00000000
Si      -2.79894780      -2.50023807       0.69117921       0.00000000
