10
Lattice="16.28999089631971 0.0 0.0 0.0 16.28999089631971 0.0 0.0 0.0 34.397273925272025" Properties=species:S:1:pos:R:3:initial_magmoms:R:1 pbc="T T T"
Si      -0.17501976      -1.08317097       2.03030023       0.00000000
Si      -1.92316482       0.74668473      -1.13332201       0.00000000
Si       0.45067914       2.22280308       0.79062178       0.00000000
Si       1.12515030      -1.31600394      -1.68409147       0.00000000
Si       1.72423134       0.66041289      -2.78748784       0.00000000
Si       1.08154197       1.39391901       2.86250834       0.00000000
Si      -0.51637671       1.61385030      -2.95930232       0.00000000
Si       0.36947349      -3.32860086       1.79694899       0.00000000
Si      -1.59500277       3.11062437       1.50783974       0.00000000
Si       2.91175605       2.21602644      -1.37389668       0.00000000
