10
Lattice="16.28999089631971 0.0 0.0 0.0 16.28999089631971 0.0 0.0 0.0 34.397273925272025" Properties=species:S:1:pos:R:3:initial_magmoms:R:1 pbc="T T T"
Si      -1.49252238      -1.41894045       1.20878968       0.00000000
Si       1.86409728       0.54286425       1.42683412       0.00000000
Si      -0.94245795       2.20338540      -0.54086304       0.00000000
Si       0.59561127      -1.48341627      -1.92504451       0.00000000
Si      -0.36070947       1.79517429      -2.70507193       0.00000000
Si      -1.08119988      -0.42966504      -3.42473210       0.00000000
Si      -3.49238052      -1.33516098      -0.06704032       0.00000000
Si       2.40468093      -1.54756629       2.51715952       0.00000000
Si      -1.23756759      -0.83885355       3.63046231       0.00000000
Si       2.07555777       1.48561542      -3.00587626       0.00000000
