10
Lattice="16.28999089631971 0.0 0.0 0.0 16.28999089631971 0.0 0.0 0.0 34.397273925272025" Properties=species:S:1:pos:R:3:initial_magmoms:R:1 pbc="T T T"
Si      -2.17461726       0.90354114      -0.08595884       0.00000000
Si       0.98153766       1.51128846      -1.55059558       0.00000000
Si      -0.36834948      -2.33033337      -0.43918464       0.00000000
Si       1.52217018      -0.11557755       1.88655394       0.00000000
Si      -2.17722366       2.50344720       1.61423057       0.00000000
Si       3.05978328      -1.72815723       1.14622100       0.00000000
Si       3.03958368       0.40312863      -2.16599755       0.00000000
Si       0.59870637      -1.72138059       3.31073947       0.00000000
Si       1.87225857      -3.28377078      -0.26737016       0.00000000
Si      -2.72192868       1.06108173      -2.44599152       0.00000000
