10
Lattice="16.28999089631971 0.0 0.0 0.0 16.28999089631971 0.0 0.0 0.0 34.397273925272025" Properties=species:S:1:pos:R:3:initial_magmoms:R:1 pbc="T T T"
Si      -1.35720135       1.35710361      -1.35742038       0.00000000
Si       1.35759231      -1.35696189      -1.35738598       0.00000000
Si      -1.35638685      -1.35756299       1.35848670       0.00000000
Si       1.35832536       1.35871632       1.35697321       0.00000000
Si       0.00107514      -2.71323034      -2.71422161       0.00000000
Si      -2.71329498       0.00061902      -2.71432480       0.00000000
Si       0.00144981       2.70923877       2.71948439       0.00000000
Si      -2.71459818      -2.71489724       0.00037837       0.00000000
Si       2.71508688      -0.00105885      -2.71456558       0.00000000
Si      -2.71505430       2.71492398       0.00041277       0.00000000
