10
Lattice="16.28999089631971 0.0 0.0 0.0 16.28999089631971 0.0 0.0 0.0 34.397273925272025" Properties=species:S:1:pos:R:3:initial_magmoms:R:1 pbc="T T T"
Si      -1.61733636      -1.25621868       1.04141245       0.00000000
Si      -1.62122967       1.02113376      -1.41840678       0.00000000
Si       1.09473687      -1.68182751      -1.41451989       0.00000000
Si       0.59090346       1.92954235       1.64776793       0.00000000
Si       2.38682709       2.36863930       0.05503567       0.00000000
Si      -0.32785254      -2.17121169       2.83244510       0.00000000
Si      -2.62282032       0.56647335       2.45094473       0.00000000
Si      -0.27023481       2.37046379      -2.79120275       0.00000000
Si       2.45433285      -0.35001440      -2.79109956       0.00000000
Si      -2.96924346       2.42391128       0.01475644       0.00000000
