10
Lattice="16.28999089631971 0.0 0.0 0.0 16.28999089631971 0.0 0.0 0.0 34.397273925272025" Properties=species:S:1:pos:R:3:initial_magmoms:R:1 pbc="T T T"
Si       1.45808532       1.26736852       1.42587099       0.00000000
Si       0.64817910       1.35797350      -1.94819389       0.00000000
Si      -1.84643892       0.51395439       1.58994608       0.00000000
Si      -0.14579550      -2.24955193      -1.10050700       0.00000000
Si      -2.86935318       2.09705080       0.22296325       0.00000000
Si       0.74903049       3.49955464       1.07914628       0.00000000
Si       1.16062992       3.55404469      -1.22137909       0.00000000
Si      -1.12733316      -3.76084039       0.45008858       0.00000000
Si      -1.74583188      -2.01199486      -2.97646657       0.00000000
Si       2.72329704       0.56431003      -2.88844390       0.00000000
