10
Lattice="16.28999089631971 0.0 0.0 0.0 16.28999089631971 0.0 0.0 0.0 34.397273925272025" Properties=species:S:1:pos:R:3:initial_magmoms:R:1 pbc="T T T"
Si       2.25935784       0.04974966      -0.57526033       0.00000000
Si       0.28341342      -0.20409741       2.32164530       0.00000000
Si      -0.70905483       2.23218612      -0.34672471       0.00000000
Si      -1.45808532      -1.26736852      -1.42587099       0.00000000
Si      -3.30452424      -0.75341413       0.16407509       0.00000000
Si      -0.80990622       0.09060498      -3.37406488       0.00000000
Si      -0.29745540       2.28667617      -2.64725008       0.00000000
Si       3.07460718      -1.83111492       0.57065109       0.00000000
Si       1.72573002      -2.04847092       2.51640277       0.00000000
Si       1.22890131       1.82146635       3.06287257       0.00000000
