10
Lattice="16.28999089631971 0.0 0.0 0.0 16.28999089631971 0.0 0.0 0.0 34.397273925272025" Properties=species:S:1:pos:R:3:initial_magmoms:R:1 pbc="T T T"
Si      -1.39701411      -1.29065670      -1.39343435       0.00000000
Si      -1.21414257       0.62565003       1.93574207       0.00000000
Si       1.26591219      -1.84080258       0.82560383       0.00000000
Si       1.11457809       1.80559989      -1.13837842       0.00000000
Si      -1.42804656      -1.44401076       3.02613626       0.00000000
Si       0.85431276      -1.89529263       3.12612919       0.00000000
Si       2.43999765       0.74414349      -2.78511443       0.00000000
Si       0.25112664       1.87411563       3.33309771       0.00000000
Si      -1.33436277      -0.38894004      -3.57659614       0.00000000
Si       3.52631259      -1.55747061       0.39955896       0.00000000
