10
Lattice="16.28999089631971 0.0 0.0 0.0 16.28999089631971 0.0 0.0 0.0 34.397273925272025" Properties=species:S:1:pos:R:3:initial_magmoms:R:1 pbc="T T T"
Si      -0.79299720      -1.31022099      -1.79643303       0.00000000
Si      -0.32088042       2.30744592      -0.49821039       0.00000000
Si      -2.09403063      -0.60774732       1.19723219       0.00000000
Si       2.37509829      -0.33664914      -1.89370858       0.00000000
Si      -0.73101375      -2.00181294       2.48809380       0.00000000
Si       1.12402629       2.92623786       1.34194160       0.00000000
Si      -3.04530147      -1.21099860      -1.14243730       0.00000000
Si       2.06684262       0.98947089       2.64952030       0.00000000
Si       0.25151760      -3.37852971      -1.42084899       0.00000000
Si       1.10662857       0.93037077      -3.42741508       0.00000000
