10
Lattice="16.28999089631971 0.0 0.0 0.0 16.28999089631971 0.0 0.0 0.0 34.397273925272025" Properties=species:S:1:pos:R:3:initial_magmoms:R:1 pbc="T T T"
Si       1.37137365       1.21736799       1.38997257       0.00000000
Si      -1.30249953       1.43593092      -1.39763020       0.00000000
Si       1.67523102      -0.87314400      -1.48517131       0.00000000
Si      -1.31222466      -1.54437345       1.34098394       0.00000000
Si      -1.78202826      -0.28786059      -2.90399086       0.00000000
Si       0.23032431      -1.49193594      -3.32532330       0.00000000
Si      -0.09373266       2.48562594       2.69965294       0.00000000
Si       0.38384127       2.30622417      -2.90357809       0.00000000
Si       2.62747926      -0.25076826       2.70099100       0.00000000
Si       2.61804735      -2.80991097      -0.17759261       0.00000000
