10
Lattice="16.28999089631971 0.0 0.0 0.0 16.28999089631971 0.0 0.0 0.0 34.397273925272025" Properties=species:S:1:pos:R:3:initial_magmoms:R:1 pbc="T T T"
Si      -1.35711990       1.35702216      -1.35748917       0.00000000
Si       1.35752715      -1.35788553      -1.35735158       0.00000000
Si       1.36013355       1.35705474       1.35714520       0.00000000
Si      -1.35575154      -1.36018242       1.35914024       0.00000000
Si      -2.71389771       0.00014661      -2.71404962       0.00000000
Si       0.00228060      -2.71575477       2.71288011       0.00000000
Si      -0.00030951      -2.71485882      -2.71401522       0.00000000
Si      -2.71515204       2.71494027       0.00082554       0.00000000
Si       2.71551042       2.71500543      -0.00003440       0.00000000
Si       2.71549413      -0.00076563      -2.71508154       0.00000000
