10
Lattice="16.28999089631971 0.0 0.0 0.0 16.28999089631971 0.0 0.0 0.0 34.397273925272025" Properties=species:S:1:pos:R:3:initial_magmoms:R:1 pbc="T T T"
Si       1.34684091       1.36036391       1.36014121       0.00000000
Si       1.34710155      -1.32574536      -1.39487903       0.00000000
Si      -1.36616085      -1.35441576       1.36062277       0.00000000
Si      -1.33097445       1.24386272      -1.50304820       0.00000000
Si      -0.21015729      -2.44540593      -2.71248522       0.00000000
Si      -2.22286824      -0.49106205      -2.90407200       0.00000000
Si       2.60495019       0.08961489      -2.77841869       0.00000000
Si      -2.70601335       2.69693072      -0.02049735       0.00000000
Si       2.70764235      -2.69913897      -0.00371147       0.00000000
Si       2.70713736       0.00323209       2.71928145       0.00000000
