10
Lattice="16.28999089631971 0.0 0.0 0.0 16.28999089631971 0.0 0.0 0.0 34.397273925272025" Properties=species:S:1:pos:R:3:initial_magmoms:R:1 pbc="T T T"
Si       1.46510631      -1.26825795      -1.30968038       0.00000000
Si       1.35439947       1.34335485       1.36467821       0.00000000
Si      -1.36260963      -1.37155284       1.36168564       0.00000000
Si      -1.36054080       1.37339361      -1.39116756       0.00000000
Si       0.09373266      -2.48562594      -2.69965294       0.00000000
Si      -2.70764235       2.69913897       0.00371147       0.00000000
Si       2.71264338       2.70517469      -0.00537286       0.00000000
Si      -0.00050499       2.70237106       2.72299292       0.00000000
Si       2.71467963      -0.01321119       2.72151383       0.00000000
Si      -2.71531494      -0.01316232       2.72251136       0.00000000
