10
Lattice="16.28999089631971 0.0 0.0 0.0 16.28999089631971 0.0 0.0 0.0 34.397273925272025" Properties=species:S:1:pos:R:3:initial_magmoms:R:1 pbc="T T T"
Si       0.91986372      -1.29935556       1.80871287       0.00000000
Si      -0.95340483      -1.45875321      -1.68777198       0.00000000
Si       1.83557349       1.63656233      -0.08214074       0.00000000
Si      -1.98698904       0.96042582       1.12255566       0.00000000
Si       0.39325689       3.48093584      -0.27689821       0.00000000
Si      -1.87686864      -3.06455625      -0.26358646       0.00000000
Si      -1.51536096       3.27426461       1.04464579       0.00000000
Si       1.74185712       0.17343963       3.42813743       0.00000000
Si       3.13510824       1.23549876       1.87269183       0.00000000
Si       0.58420827      -3.07133289      -2.42810492       0.00000000
