10
Lattice="16.28999089631971 0.0 0.0 0.0 16.28999089631971 0.0 0.0 0.0 34.397273925272025" Properties=species:S:1:pos:R:3:initial_magmoms:R:1 pbc="T T T"
Si      -0.82199340      -1.47279519      -1.61942456       0.00000000
Si       1.39325112       1.06205913      -1.55544560       0.00000000
Si      -1.40225949       1.49536044       1.20909925       0.00000000
Si       1.87493013      -1.44708957       1.13676174       0.00000000
Si       2.60358183      -1.01740824      -1.32016811       0.00000000
Si      -2.50833420      -2.34308844      -0.11347667       0.00000000
Si       1.22596911      -2.81491200      -1.81246217       0.00000000
Si       0.16553898      -2.56165137       2.67412610       0.00000000
Si      -2.66010813       0.08000019       2.59263891       0.00000000
Si       0.08690715       2.74837128       2.52737349       0.00000000
