10
Lattice="16.28999089631971 0.0 0.0 0.0 16.28999089631971 0.0 0.0 0.0 34.397273925272025" Properties=species:S:1:pos:R:3:initial_magmoms:R:1 pbc="T T T"
Si      -1.48916664      -1.25301084      -1.31827424       0.00000000
Si       1.32616890      -1.33659000       1.45106013       0.00000000
Si      -1.37321442       1.36578944       1.44972208       0.00000000
Si       1.17548640       1.39079459      -1.64783470       0.00000000
Si      -2.30133717       0.53732891      -2.77637549       0.00000000
Si      -0.08690715      -2.74837128      -2.52737349       0.00000000
Si       2.77189011      -2.59995309       0.05217037       0.00000000
Si      -0.61178724       2.25061337      -3.01856683       0.00000000
Si       2.67920001       2.71978166      -0.02402651       0.00000000
Si      -2.74701528      -2.66837109       0.06526542       0.00000000
