10
Lattice="16.28999089631971 0.0 0.0 0.0 16.28999089631971 0.0 0.0 0.0 34.397273925272025" Properties=species:S:1:pos:R:3:initial_magmoms:R:1 pbc="T T T"
Si      -0.88480764      -1.82348698       1.15740012       0.00000000
Si       2.34256716      -0.22282537      -0.28756137       0.00000000
Si      -0.76056381       1.94842084       1.17624984       0.00000000
Si      -1.01667519      -1.11739693      -2.01633493       0.00000000
Si      -0.51820119      -1.25946202       3.37857093       0.00000000
Si       0.38584494      -3.62198443       0.37197233       0.00000000
Si      -3.29787792      -0.82490998      -1.47141301       0.00000000
Si      -0.99383661       1.09340923       3.46704077       0.00000000
Si       3.24302949      -0.60048265       1.88989048       0.00000000
Si      -3.02708925      -2.38482409       0.29880929       0.00000000
