10
Lattice="16.28999089631971 0.0 0.0 0.0 16.28999089631971 0.0 0.0 0.0 34.397273925272025" Properties=species:S:1:pos:R:3:initial_magmoms:R:1 pbc="T T T"
Si       1.04075181       2.07798596      -0.40038449       0.00000000
Si      -2.34256716       0.22282537       0.28756137       0.00000000
Si       0.90046233      -0.37765728       2.17745185       0.00000000
Si       0.46802799      -1.88050752      -1.47020910       0.00000000
Si       0.34151985      -3.50312184       0.22110580       0.00000000
Si       3.29070122       1.37102276      -0.50956150       0.00000000
Si       0.50920911       3.34656971       1.51667985       0.00000000
Si       1.22438444       1.77753320       3.13778988       0.00000000
Si      -3.22737480      -1.60066161       1.44496149       0.00000000
Si      -3.35924235      -0.89457156      -1.72877356       0.00000000
