10
Lattice="16.28999089631971 0.0 0.0 0.0 16.28999089631971 0.0 0.0 0.0 34.397273925272025" Properties=species:S:1:pos:R:3:initial_magmoms:R:1 pbc="T T T"
Si       0.49902786       0.28105137      -2.25491455       0.00000000
Si      -2.25935784      -0.04974966       0.57526033       0.00000000
Si       0.81524934      -1.88086458       1.14591142       0.00000000
Si       1.07499339       2.02281075       0.61815376       0.00000000
Si       2.65499307      -0.65973034      -2.20421294       0.00000000
Si      -1.97594442      -0.25384707       2.89690563       0.00000000
Si      -0.29641284       2.52025848      -2.49803462       0.00000000
Si      -2.96841267       2.18243646       0.22853562       0.00000000
Si      -0.53362782      -2.09822058       3.09166311       0.00000000
Si      -0.00316026       3.77317125      -0.52197892       0.00000000
