10
Lattice="16.28999089631971 0.0 0.0 0.0 16.28999089631971 0.0 0.0 0.0 34.397273925272025" Properties=species:S:1:pos:R:3:initial_magmoms:R:1 pbc="T T T"
Si       1.87162067       0.76931154      -1.22689783       0.00000000
Si       1.33917665      -1.34527707       1.48411937       0.00000000
Si      -1.35433431       1.37811771       1.45449298       0.00000000
Si      -1.50371361      -1.32898707      -1.62380819       0.00000000
Si       2.63136021      -2.68399742       0.06500744       0.00000000
Si      -2.67920001      -2.71978166       0.02402651       0.00000000
Si      -2.77386120       2.69930187      -0.03139097       0.00000000
Si       3.68449568      -0.79417008      -0.90574127       0.00000000
Si       2.85266312       2.64881916       0.02778269       0.00000000
Si       0.00542457      -2.70079566       2.84826786       0.00000000
