10
Lattice="16.28999089631971 0.0 0.0 0.0 16.28999089631971 0.0 0.0 0.0 34.397273925272025" Properties=species:S:1:pos:R:3:initial_magmoms:R:1 pbc="T T T"
Si       1.35155653      -1.35641943       1.35576931       0.00000000
Si       1.35513889       1.35777150      -1.35738598       0.00000000
Si      -1.35928647      -1.35694071      -1.35759237       0.00000000
Si      -1.36076886       1.35576783       1.35883067       0.00000000
Si      -0.00234576      -2.69286732       2.72154823       0.00000000
Si       2.71461188      -2.71278999       0.00041277       0.00000000
Si       2.71328751       0.00053757      -2.71504714       0.00000000
Si       2.71399775       2.71523349       0.00244221       0.00000000
Si      -0.00208512      -2.71489140      -2.71466877       0.00000000
Si      -2.71648782      -2.71336014      -0.00034397       0.00000000
