10
Lattice="16.28999089631971 0.0 0.0 0.0 16.28999089631971 0.0 0.0 0.0 34.397273925272025" Properties=species:S:1:pos:R:3:initial_magmoms:R:1 pbc="T T T"
Si      -1.16903556      -1.80638181       1.03714718       0.00000000
Si      -1.56079377       1.11366585      -1.46470554       0.00000000
Si       1.14440508      -1.59203799      -1.49040031       0.00000000
Si       1.97304480       1.03537611       1.43357599       0.00000000
Si      -1.63191591      -0.05354523       2.58192962       0.00000000
Si       0.55197036      -3.47907159       1.16503632       0.00000000
Si      -0.21401802       2.45659716      -2.85311788       0.00000000
Si       2.49830737      -0.25559010      -2.85617924       0.00000000
Si       2.48637528      -2.88816813      -0.10494614       0.00000000
Si      -2.89235466       2.51905302      -0.08681877       0.00000000
