10
Lattice="16.28999089631971 0.0 0.0 0.0 16.28999089631971 0.0 0.0 0.0 34.397273925272025" Properties=species:S:1:pos:R:3:initial_magmoms:R:1 pbc="T T T"
Si      -1.35018036      -1.35829278      -1.36584772       0.00000000
Si       1.36208835       1.35651717      -1.36811794       0.00000000
Si       1.37239992      -1.30181535       1.43804763       0.00000000
Si      -1.52125794       1.20249522       1.40475105       0.00000000
Si       0.00848709       2.49909777       2.66695973       0.00000000
Si      -0.24478983      -2.34616725       2.88944142       0.00000000
Si      -2.69789930       2.70743058      -0.01310537       0.00000000
Si      -2.70573968      -2.71848172       0.01850574       0.00000000
Si       2.72041371      -2.70459286       0.00488442       0.00000000
Si      -2.70766841       0.00141723      -2.72430001       0.00000000
