10
Lattice="16.28999089631971 0.0 0.0 0.0 16.28999089631971 0.0 0.0 0.0 34.397273925272025" Properties=species:S:1:pos:R:3:initial_magmoms:R:1 pbc="T T T"
Si      -1.47753558       1.61186292       0.89632466       0.00000000
Si       0.91019351       1.72414989      -1.40973866       0.00000000
Si      -1.75179402      -0.89407665      -1.43701572       0.00000000
Si       2.07947293      -1.23891966       0.48562098       0.00000000
Si       0.14393844       2.68814322       2.39129982       0.00000000
Si       2.19114251       0.40156479      -2.92920469       0.00000000
Si       2.97037466      -1.48621815      -1.65368427       0.00000000
Si      -0.52333254      -2.31199083      -2.92710646       0.00000000
Si      -1.28958156      -2.59007742       2.55695718       0.00000000
Si       2.01253569       3.33005067      -0.07815065       0.00000000
