10
Lattice="16.28999089631971 0.0 0.0 0.0 16.28999089631971 0.0 0.0 0.0 34.397273925272025" Properties=species:S:1:pos:R:3:initial_magmoms:R:1 pbc="T T T"
Si       0.49575357       1.51545870      -1.67851911       0.00000000
Si       1.14719067      -1.92797037      -0.69541008       0.00000000
Si       1.71968643       0.93871125       1.32807949       0.00000000
Si      -1.97224659       0.23605839       1.37059454       0.00000000
Si      -1.57711635      -1.80395460       2.53655959       0.00000000
Si      -0.77489901       3.31395615      -0.89309132       0.00000000
Si       2.84804586      -0.97976205      -2.11914844       0.00000000
Si       1.27972611       0.11673414       3.45335064       0.00000000
Si      -0.31884417      -3.03622794      -2.19079800       0.00000000
Si       0.75968415      -2.11079304       3.02228377       0.00000000
