10
Lattice="16.28999089631971 0.0 0.0 0.0 16.28999089631971 0.0 0.0 0.0 34.397273925272025" Properties=species:S:1:pos:R:3:initial_magmoms:R:1 pbc="T T T"
Si      -0.91868011      -1.53070614      -1.60594082       0.00000000
Si       1.64271781       0.94657932      -1.58347939       0.00000000
Si       1.61495965      -1.22826600       1.46418958       0.00000000
Si      -1.90570750      -0.96902694       1.58368577       0.00000000
Si      -1.43201059       2.39283810      -0.06741869       0.00000000
Si       1.64102365       1.35008262       2.68983393       0.00000000
Si      -2.85308503      -2.12160960      -0.33595836       0.00000000
Si      -2.26065031      -0.23457600      -2.99139500       0.00000000
Si       3.17246284       2.24318187      -0.32127072       0.00000000
Si       0.46607645       2.45151468      -3.00133581       0.00000000
