10
Lattice="16.28999089631971 0.0 0.0 0.0 16.28999089631971 0.0 0.0 0.0 34.397273925272025" Properties=species:S:1:pos:R:3:initial_magmoms:R:1 pbc="T T T"
Si       1.35065277      -1.34972424       1.35927783       0.00000000
Si       1.35582606       1.35586557      -1.35552853       0.00000000
Si      -1.35852084      -1.35703845      -1.35573491       0.00000000
Si      -1.35982404       1.35560493       1.36044734       0.00000000
Si      -2.69171073       0.00539199       2.73172983       0.00000000
Si       2.71396354      -0.00112401      -2.71267373       0.00000000
Si      -0.00086337       2.71437012      -2.71229536       0.00000000
Si       2.71269292       2.71414206       0.00282058       0.00000000
Si      -0.00135207      -2.71551042      -2.71257054       0.00000000
Si      -2.71567332      -0.00143352      -2.71270813       0.00000000
