10
Lattice="16.28999089631971 0.0 0.0 0.0 16.28999089631971 0.0 0.0 0.0 34.397273925272025" Properties=species:S:1:pos:R:3:initial_magmoms:R:1 pbc="T T T"
Si       1.92420575      -0.50526693       1.18426441       0.00000000
Si      -1.39482378       0.76501098       1.76420277       0.00000000
Si       0.50970596       1.42550532      -1.83279097       0.00000000
Si      -0.91436652      -2.15692632      -0.41717037       0.00000000
Si      -3.09582558      -1.44102969      -0.80706369       0.00000000
Si      -3.52754316       0.03740184       0.98899097       0.00000000
Si       2.02150592      -2.89149129       1.23383091       0.00000000
Si       1.98623807       0.73461384       3.12399656       0.00000000
Si       2.27981645       0.09027918      -3.05441084       0.00000000
Si      -1.64972970       3.07558458       1.65557612       0.00000000
