10
Lattice="16.28999089631971 0.0 0.0 0.0 16.28999089631971 0.0 0.0 0.0 34.397273925272025" Properties=species:S:1:pos:R:3:initial_magmoms:R:1 pbc="T T T"
Si      -0.06203232      -1.23988077      -1.93973216       0.00000000
Si      -2.16383963      -0.32518098       0.79168810       0.00000000
Si       1.99293489      -0.88071885       0.83382478       0.00000000
Si       0.37856331       2.33403120      -0.29667665       0.00000000
Si       2.02041612      -0.67041495      -2.72354327       0.00000000
Si       3.25669680       1.05971337       1.13652096       0.00000000
Si      -3.38106185       0.03039714      -1.35979379       0.00000000
Si      -2.35681181       1.35826020       2.46821217       0.00000000
Si      -1.98623807      -0.73461384      -3.12399656       0.00000000
Si       3.16915434      -1.80165771      -1.02789431       0.00000000
