10
Lattice="16.28999089631971 0.0 0.0 0.0 16.28999089631971 0.0 0.0 0.0 34.397273925272025" Properties=species:S:1:pos:R:3:initial_magmoms:R:1 pbc="T T T"
Si      -0.08043839      -2.31045957      -0.07722192       0.00000000
Si      -1.40990832       0.91522107       1.67346271       0.00000000
Si      -1.21066533       0.71633646      -1.96319111       0.00000000
Si       2.36180402       0.53444232       0.28773336       0.00000000
Si      -0.46099397       2.89217547      -1.54436967       0.00000000
Si      -1.29060036       3.09852090       0.71735555       0.00000000
Si      -1.26292365      -2.75201631      -2.05155776       0.00000000
Si      -3.51280071       0.00260640       1.16967995       0.00000000
Si       2.14796519      -3.05541756       0.11017453       0.00000000
Si       2.48873570       1.95427872       2.16868054       0.00000000
