10
Lattice="16.28999089631971 0.0 0.0 0.0 16.28999089631971 0.0 0.0 0.0 34.397273925272025" Properties=species:S:1:pos:R:3:initial_magmoms:R:1 pbc="T T T"
Si      -1.87162067      -0.76931154       1.22689783       0.00000000
Si       0.07640010       0.07392402      -2.39945198       0.00000000
Si       1.81287500      -1.56348162       0.32115656       0.00000000
Si       0.98104244       1.87950762       1.25468052       0.00000000
Si       1.94581769      -1.30370499      -2.01010902       0.00000000
Si      -0.28685061       2.34593919      -2.02603496       0.00000000
Si      -0.53244403      -2.11458861       2.71101720       0.00000000
Si       2.22652697       0.58829706       2.72763109       0.00000000
Si       0.75973954      -3.45330896       1.29190527       0.00000000
Si       2.84272880       2.70666495       0.00955447       0.00000000
