10
Lattice="16.28999089631971 0.0 0.0 0.0 16.28999089631971 0.0 0.0 0.0 34.397273925272025" Properties=species:S:1:pos:R:3:initial_magmoms:R:1 pbc="T T T"
Si       0.36325071      -2.27201517      -0.37341701       0.00000000
Si       2.00337026       1.20699126       0.17294959       0.00000000
Si      -0.52751648       0.70415154      -2.18329939       0.00000000
Si       0.28685061      -2.34593919       2.02603496       0.00000000
Si       1.26789305      -0.46643157       3.28071548       0.00000000
Si      -2.93866454       1.11765690       1.85614673       0.00000000
Si       1.16848170       3.49195698       0.35160913       0.00000000
Si       3.12957941       0.36072576       2.03558944       0.00000000
Si      -2.63040887      -0.20846313      -2.68708214       0.00000000
Si       0.88239183      -0.21106953      -3.85676210       0.00000000
