10
Lattice="16.28999089631971 0.0 0.0 0.0 16.28999089631971 0.0 0.0 0.0 34.397273925272025" Properties=species:S:1:pos:R:3:initial_magmoms:R:1 pbc="T T T"
Si      -0.92678697       2.19196611       0.15262079       0.00000000
Si      -0.15172506      -0.40211865       2.40206617       0.00000000
Si      -1.42035931      -1.47975102      -1.36976901       0.00000000
Si       2.25945558       0.50337729      -0.95562560       0.00000000
Si      -1.48729655       3.08921931      -1.93354064       0.00000000
Si      -0.52945758      -1.72704951      -3.50907426       0.00000000
Si       0.06291198       3.43018530       1.95538292       0.00000000
Si      -3.49983224      -0.24083136      -1.85538999       0.00000000
Si       1.05125886      -2.70801702       2.75876610       0.00000000
Si       3.93626673      -0.55037394       0.54406199       0.00000000
