10
Lattice="16.28999089631971 0.0 0.0 0.0 16.28999089631971 0.0 0.0 0.0 34.397273925272025" Properties=species:S:1:pos:R:3:initial_magmoms:R:1 pbc="T T T"
Si       1.35571896      -1.35617834      -1.35934663       0.00000000
Si       1.35018036       1.35829278       1.36584772       0.00000000
Si      -1.35748805       1.35971001      -1.35845230       0.00000000
Si      -1.35555932      -1.36018894       1.38435346       0.00000000
Si      -0.17107758       2.56078800       2.77059877       0.00000000
Si       2.71226871       2.71480995      -0.00227022       0.00000000
Si       2.71383255       0.00039096      -2.71625105       0.00000000
Si      -0.00066789      -2.71523495      -2.71607906       0.00000000
Si      -0.00068418       2.71546155      -2.71690460       0.00000000
Si      -2.71691319       0.00096111      -2.71573509       0.00000000
