10
Lattice="16.28999089631971 0.0 0.0 0.0 16.28999089631971 0.0 0.0 0.0 34.397273925272025" Properties=species:S:1:pos:R:3:initial_magmoms:R:1 pbc="T T T"
Si       1.24313877      -1.42340391       1.46367362       0.00000000
Si      -2.47340355      -0.05872545       0.27504076       0.00000000
Si       0.79687422       2.22211890       0.91913007       0.00000000
Si      -1.20298392       2.30589837      -0.35669993       0.00000000
Si      -0.05993091      -1.68904494      -2.83887740       0.00000000
Si       3.32610849      -1.20387987       0.35047402       0.00000000
Si      -2.94189907      -2.32515315      -0.65158792       0.00000000
Si       1.33358085      -0.51580656       3.61402040       0.00000000
Si      -2.86944766       0.15708447       2.63441989       0.00000000
Si      -1.05125886       2.70801702      -2.75876610       0.00000000
