10
Lattice="16.28999089631971 0.0 0.0 0.0 16.28999089631971 0.0 0.0 0.0 34.397273925272025" Properties=species:S:1:pos:R:3:initial_magmoms:R:1 pbc="T T T"
Si       0.12755070       1.00869309       2.12162504       0.00000000
Si      -0.37856331      -2.33403120       0.29667665       0.00000000
Si      -1.78264402       0.83909790      -1.37410307       0.00000000
Si       2.42038449       0.16620687      -0.39450256       0.00000000
Si       0.70198497       3.07442799       1.21463722       0.00000000
Si       2.87813349      -1.27431783       1.43319762       0.00000000
Si       2.32994241      -0.74139048      -2.54484934       0.00000000
Si       1.90933461      -0.08594604       3.18391665       0.00000000
Si       1.61437158      -3.21475005       1.13050144       0.00000000
Si      -2.54240294      -2.65921218       1.08836475       0.00000000
