10
Lattice="16.28999089631971 0.0 0.0 0.0 16.28999089631971 0.0 0.0 0.0 34.397273925272025" Properties=species:S:1:pos:R:3:initial_magmoms:R:1 pbc="T T T"
Si      -2.09460730       0.88027902      -0.47963586       0.00000000
Si      -0.57443427      -2.06573490       0.90698783       0.00000000
Si       0.65422269       1.30021893       1.85893291       0.00000000
Si       1.43664768       0.40979124      -1.88235747       0.00000000
Si      -0.70198497      -3.07442799      -1.21463722       0.00000000
Si       1.89066627       2.69558775      -1.32866424       0.00000000
Si       2.43797769       2.53804716       1.03136844       0.00000000
Si      -1.89523562       3.15172404      -0.05593000       0.00000000
Si       3.27468096      -0.96832647      -1.46099063       0.00000000
Si       1.71839952      -2.90822112      -1.60913977       0.00000000
