10
Lattice="16.28999089631971 0.0 0.0 0.0 16.28999089631971 0.0 0.0 0.0 34.397273925272025" Properties=species:S:1:pos:R:3:initial_magmoms:R:1 pbc="T T T"
Si      -0.46139633       0.92831823      -2.10683421       0.00000000
Si       0.83488856      -2.28496572      -0.17865954       0.00000000
Si       2.06893751       1.33157718       0.13218880       0.00000000
Si      -1.55421002       0.74288916       1.79280553       0.00000000
Si       1.81284242       0.49145301      -2.49621156       0.00000000
Si       2.20264583      -1.74874779      -2.03969069       0.00000000
Si       0.18006803       1.77841188       2.98383245       0.00000000
Si       1.30283510       3.15978759       1.38848114       0.00000000
Si      -1.16848170      -3.49195698      -0.35160913       0.00000000
Si      -1.57669022      -0.60450561      -3.49101568       0.00000000
