10
Lattice="16.28999089631971 0.0 0.0 0.0 16.28999089631971 0.0 0.0 0.0 34.397273925272025" Properties=species:S:1:pos:R:3:initial_magmoms:R:1 pbc="T T T"
Si      -1.36149281      -1.33923348      -1.37551336       0.00000000
Si       1.36287027       1.36427121      -1.37124809       0.00000000
Si      -1.28094900       1.32258510       1.51946603       0.00000000
Si       0.77923215      -1.88778294       1.27552042       0.00000000
Si      -2.19114251      -0.40156479       2.92920469       0.00000000
Si      -0.11166958      -1.64048445       3.41482567       0.00000000
Si       2.70143586      -2.70601335       0.00471243       0.00000000
Si      -2.71447505      -2.71355562       0.00209823       0.00000000
Si       0.00282957      -2.70568755      -2.73018195       0.00000000
Si      -2.70724229       2.73025287       0.02662350       0.00000000
