10
Lattice="16.28999089631971 0.0 0.0 0.0 16.28999089631971 0.0 0.0 0.0 34.397273925272025" Properties=species:S:1:pos:R:3:initial_magmoms:R:1 pbc="T T T"
Si       2.33528553      -0.29375757      -0.02713946       0.00000000
Si      -0.80798400      -0.41366826       2.20015406       0.00000000
Si      -0.59613255       2.26865684      -0.45882549       0.00000000
Si      -0.98969895      -1.23821919      -1.80276213       0.00000000
Si      -1.68124203      -2.50950708       1.69819436       0.00000000
Si       0.78310917       3.19341734       1.17962077       0.00000000
Si       2.79259470       1.84033410       1.01743753       0.00000000
Si       2.91703401      -0.70196868      -2.19134835       0.00000000
Si      -2.98637144       0.51997680       2.22818786       0.00000000
Si      -3.41880578      -0.98287344      -1.41947310       0.00000000
