10
Lattice="10.86 0.0 0.0 0.0 10.86 0.0 0.0 0.0 10.86" Properties=species:S:1:pos:R:3:initial_magmoms:R:1 pbc="T T T"
Si      -1.09783740      -1.44758370       1.31176854       0.00000000
Si       1.61716260       1.26741630       1.31176854       0.00000000
Si       1.61716260      -1.44758370      -1.40323146       0.00000000
Si      -2.64410592       0.23081844       2.50995234       0.00000000
Si      -2.53818834      -0.10474470      -2.62542672       0.00000000
Si       0.21710226       2.52715458       2.63109564       0.00000000
Si      -2.45533740      -2.80508370      -0.04573146       0.00000000
Si       0.25966260      -2.80508370       2.66926854       0.00000000
Si       0.25966260      -2.80508370      -2.76073146       0.00000000
Si       0.28825698       2.66022216      -2.90259564       0.00000000
