10
Lattice="16.28999089631971 0.0 0.0 0.0 16.28999089631971 0.0 0.0 0.0 34.69518985606464" Properties=species:S:1:pos:R:3:initial_magmoms:R:1 pbc="T T T"
Si       1.02073710       1.09089243       1.85622839       0.00000000
Si      -0.43983311      -2.30632028       0.69615937       0.00000000
Si       1.41255070      -0.07073118      -2.03900275       0.00000000
Si      -2.27149700       1.11527856       0.11824127       0.00000000
Si      -1.84566011      -2.14062329      -2.08042883       0.00000000
Si      -0.24223541      -1.06104915      -3.47361496       0.00000000
Si       1.76655683       3.18922362       0.68620185       0.00000000
Si      -3.66870659      -0.77608818      -0.32547576       0.00000000
Si      -2.67032507      -2.27266677       1.41795851       0.00000000
Si      -2.07606587       2.80753263      -1.59816542       0.00000000
