10
Lattice="16.28999089631971 0.0 0.0 0.0 16.28999089631971 0.0 0.0 0.0 34.69518985606464" Properties=species:S:1:pos:R:3:initial_magmoms:R:1 pbc="T T T"
Si       0.46559752      -0.86586237       2.13680855       0.00000000
Si      -2.10024105       1.06111431       0.43212883       0.00000000
Si       1.62453980       1.75288612       0.17635575       0.00000000
Si       0.44358973      -1.54277703      -1.92312075       0.00000000
Si       2.64598796      -1.48250403       1.86792068       0.00000000
Si       3.49767803       0.63651546       1.10903236       0.00000000
Si      -3.62448006       0.15987006      -1.06413676       0.00000000
Si      -1.75699446       3.40500815       0.05374288       0.00000000
Si       0.20790764      -0.20284308      -3.93325709       0.00000000
Si       0.54515462       0.83178369       3.81661180       0.00000000
