10
Lattice="16.28999089631971 0.0 0.0 0.0 16.28999089631971 0.0 0.0 0.0 34.69518985606464" Properties=species:S:1:pos:R:3:initial_magmoms:R:1 pbc="T T T"
Si      -1.35918873       1.35446137       1.36334825       0.00000000
Si       1.35588186      -1.36280228       1.36261965       0.00000000
Si      -1.35259128      -1.36262007      -1.38641709       0.00000000
Si       1.35532800       1.35131740      -1.39509089       0.00000000
Si      -2.71156010       2.71353607       0.00228988       0.00000000
Si       2.72003904       2.71076677       0.00124903       0.00000000
Si       2.71704168      -2.71442943       0.00669618       0.00000000
Si      -2.71545178      -2.71693809      -0.00367769       0.00000000
Si      -0.00042354       2.71294963       2.72031258       0.00000000
Si      -2.71492724      -0.00216820       2.72003501       0.00000000
