10
Lattice="16.28999089631971 0.0 0.0 0.0 16.28999089631971 0.0 0.0 0.0 34.69518985606464" Properties=species:S:1:pos:R:3:initial_magmoms:R:1 pbc="T T T"
Si      -1.65478611      -0.99031797      -1.43461221       0.00000000
Si       1.08254380       1.84678101      -1.15625254       0.00000000
Si      -1.41255070       0.07073118       2.03900275       0.00000000
Si       2.09205139      -1.61264484      -0.00031226       0.00000000
Si      -0.15907511      -2.19431513      -2.75403632       0.00000000
Si       2.54222554       0.56850471      -2.72683528       0.00000000
Si      -3.25821081      -2.06989211      -0.04142608       0.00000000
Si       1.21032256      -3.52522835      -1.21405476       0.00000000
Si      -1.85238381      -2.23558910       2.73516213       0.00000000
Si      -2.88657075       0.54635031      -2.74959533       0.00000000
