10
Lattice="16.28999089631971 0.0 0.0 0.0 16.28999089631971 0.0 0.0 0.0 34.69518985606464" Properties=species:S:1:pos:R:3:initial_magmoms:R:1 pbc="T T T"
Si       1.35902583       1.33978734      -1.38302043       0.00000000
Si      -1.35063648      -1.37329587      -1.38628178       0.00000000
Si       1.43708751      -1.34149779       1.39318613       0.00000000
Si      -1.45968174       1.27827630       1.57058273       0.00000000
Si       0.47912148       2.12680611       2.76305707       0.00000000
Si      -0.45017415      -2.18114955       2.72652302       0.00000000
Si      -2.54222554      -0.56850471       2.72683528       0.00000000
Si      -2.70388913       2.70586674      -0.00239397       0.00000000
Si       2.72666907       2.71057455      -0.01151881       0.00000000
Si       0.00382815       2.70239697      -2.74969942       0.00000000
