10
Lattice="16.28999089631971 0.0 0.0 0.0 16.28999089631971 0.0 0.0 0.0 34.69518985606464" Properties=species:S:1:pos:R:3:initial_magmoms:R:1 pbc="T T T"
Si      -1.35438318      -1.35383798      -1.35713780       0.00000000
Si       1.36008468      -1.34923100       1.35772762       0.00000000
Si      -1.35092970       1.36055872       1.36137062       0.00000000
Si       1.36071999       1.36122661      -1.35703372       0.00000000
Si      -2.70159387      -0.02896525       2.72045136       0.00000000
Si      -2.71150634       0.00363593      -2.71483073       0.00000000
Si       0.00340461      -2.71149235      -2.71486543       0.00000000
Si      -2.71033509       2.71780894       0.00194293       0.00000000
Si      -2.71582156      -2.71424536      -0.00093677       0.00000000
Si       2.71818198      -2.71191589       0.00020817       0.00000000
