10
Lattice="16.28999089631971 0.0 0.0 0.0 16.28999089631971 0.0 0.0 0.0 34.69518985606464" Properties=species:S:1:pos:R:3:initial_magmoms:R:1 pbc="T T T"
Si       1.92034665      -0.39259226      -1.35692963       0.00000000
Si      -1.73284875       1.22175163      -1.10556284       0.00000000
Si      -0.81290358      -2.16466963       0.61681143       0.00000000
Si       0.79188948       1.48297807       1.71765572       0.00000000
Si       0.91061100       3.59541640       0.49735582       0.00000000
Si      -1.22142420       3.52323541      -0.51838112       0.00000000
Si      -0.91142550       1.34174377       3.44766294       0.00000000
Si      -1.46947203       0.93354895      -3.44724660       0.00000000
Si       0.97790499      -3.37747642       1.62231329       0.00000000
Si       3.50015085       1.39815604      -1.20989134       0.00000000
