10
Lattice="16.28999089631971 0.0 0.0 0.0 16.28999089631971 0.0 0.0 0.0 34.69518985606464" Properties=species:S:1:pos:R:3:initial_magmoms:R:1 pbc="T T T"
Si       1.35829278      -1.35638685      -1.36418093       0.00000000
Si      -1.35902583      -1.33978734       1.38302043       0.00000000
Si      -1.35519768       1.36260963      -1.36667899       0.00000000
Si       1.36764324       1.37078721       1.37150162       0.00000000
Si      -2.70221778       2.70892926      -0.01276784       0.00000000
Si       2.71450044      -2.70666495      -0.00274092       0.00000000
Si      -2.70966231      -2.71308321      -0.00326135       0.00000000
Si       2.70959715       2.72258028      -0.01186576       0.00000000
Si      -2.71124244       0.00255753      -2.72211673       0.00000000
Si       0.00198738      -2.71241532      -2.72166569       0.00000000
