10
Lattice="16.28999089631971 0.0 0.0 0.0 16.28999089631971 0.0 0.0 0.0 34.69518985606464" Properties=species:S:1:pos:R:3:initial_magmoms:R:1 pbc="T T T"
Si      -0.80422101      -1.77904719       1.28230024       0.00000000
Si       0.66305187       1.94795820       1.16475287       0.00000000
Si       1.44332658      -1.19527875      -1.49227564       0.00000000
Si      -1.27654956       1.48129857      -1.50879056       0.00000000
Si      -1.15983171      -0.98323182       3.43281339       0.00000000
Si       2.68009596       2.68732872      -0.08059697       0.00000000
Si      -2.74302423      -2.62757700       0.08982590       0.00000000
Si       0.07568334      -2.56606596      -2.86377727       0.00000000
Si      -3.02296788       2.38425327      -0.22694136       0.00000000
Si      -2.62653444       0.14286330      -2.87654510       0.00000000
