10
Lattice="16.28999089631971 0.0 0.0 0.0 16.28999089631971 0.0 0.0 0.0 34.69518985606464" Properties=species:S:1:pos:R:3:initial_magmoms:R:1 pbc="T T T"
Si      -0.06691932       2.14081551      -0.89565683       0.00000000
Si       2.05555365      -0.30165822       1.25228888       0.00000000
Si      -1.78013862      -0.11161908       1.67636843       0.00000000
Si       0.14527422      -1.68163299      -1.81955555       0.00000000
Si       1.11540888      -2.44016055       1.70370825       0.00000000
Si      -0.93256992      -1.99440099       2.80826493       0.00000000
Si       1.23799113      -3.34235288      -0.51210129       0.00000000
Si       2.29881222       2.78826156      -1.00328137       0.00000000
Si      -0.45110268       3.68846325       0.83334423       0.00000000
Si      -3.79076445      -0.97642260       0.79219571       0.00000000
