10
Lattice="16.28999089631971 0.0 0.0 0.0 16.28999089631971 0.0 0.0 0.0 34.69518985606464" Properties=species:S:1:pos:R:3:initial_magmoms:R:1 pbc="T T T"
Si       0.06691932      -2.14081551       0.89565683       0.00000000
Si      -0.38418336       1.54764774       1.72900106       0.00000000
Si       2.36573154       0.64744605      -0.10762454       0.00000000
Si      -1.73643255       0.60113358      -1.65690441       0.00000000
Si       0.27720693       3.58164972       0.64998005       0.00000000
Si      -1.71321930      -2.25243459       2.57202525       0.00000000
Si       2.12247297      -2.44247373       2.14794571       0.00000000
Si      -2.61470790       1.51519806       2.48934657       0.00000000
Si       0.21219354      -3.82244850      -0.92389873       0.00000000
Si       0.96876630       1.00040148       3.71582221       0.00000000
