10
Lattice="16.28999089631971 0.0 0.0 0.0 16.28999089631971 0.0 0.0 0.0 34.69518985606464" Properties=species:S:1:pos:R:3:initial_magmoms:R:1 pbc="T T T"
Si      -2.09987874       0.79190577       0.75871484       0.00000000
Si       1.11397536      -0.23858334       2.12476931       0.00000000
Si       1.11853656       1.61658702      -1.41920753       0.00000000
Si      -0.38015973      -1.78065990      -1.82420471       0.00000000
Si      -3.10370112       0.83535120      -1.46337454       0.00000000
Si       2.93298192       0.27552906      -2.12986951       0.00000000
Si       1.72770111      -1.60016670      -2.92130192       0.00000000
Si      -0.60046569      -1.17781587       3.52560022       0.00000000
Si      -2.61185715      -1.88802729       2.07865938       0.00000000
Si      -2.45387673      -0.96765858      -2.82089399       0.00000000
