10
Lattice="16.28999089631971 0.0 0.0 0.0 16.28999089631971 0.0 0.0 0.0 34.69518985606464" Properties=species:S:1:pos:R:3:initial_magmoms:R:1 pbc="T T T"
Si       1.35000117      -1.34934957       1.35557652       0.00000000
Si      -1.35687555      -1.35475785      -1.35592347       0.00000000
Si       1.35685926       1.36026387      -1.35470914       0.00000000
Si      -1.35153243       1.35956340       1.36140532       0.00000000
Si       0.00014661      -2.71184517      -2.71208981       0.00000000
Si      -2.71479366      -2.70932022       0.00076329       0.00000000
Si       2.71044423       2.71596654       0.00350422       0.00000000
Si      -2.71474479       0.00273672      -2.71167347       0.00000000
Si       2.71513575       0.00267156      -2.71195103       0.00000000
Si       2.71282257      -2.71529865       0.00388586       0.00000000
