10
Lattice="16.28999089631971 0.0 0.0 0.0 16.28999089631971 0.0 0.0 0.0 34.69518985606464" Properties=species:S:1:pos:R:3:initial_magmoms:R:1 pbc="T T T"
Si       1.40823792       1.73121975      -0.93402973       0.00000000
Si       0.26743293      -0.90225423       2.26198886       0.00000000
Si       0.07667703      -0.95158035      -2.31295612       0.00000000
Si      -2.40365466       0.71711838       0.18371113       0.00000000
Si      -2.06255835       0.56715264      -2.27038510       0.00000000
Si       2.54697408      -1.47880620       2.12990420       0.00000000
Si       3.57198975      -0.57617730      -1.13352718       0.00000000
Si      -0.58355667       0.65722005       3.82528560       0.00000000
Si       2.37531006       3.27277503       0.46848941       0.00000000
Si       0.25270677       3.57381423      -2.00843627       0.00000000
