10
Lattice="16.28999089631971 0.0 0.0 0.0 16.28999089631971 0.0 0.0 0.0 34.69518985606464" Properties=species:S:1:pos:R:3:initial_magmoms:R:1 pbc="T T T"
Si      -1.12215294      -1.29218796      -1.66419041       0.00000000
Si       1.15553115      -1.84259448       1.07440654       0.00000000
Si      -1.40817276       0.85224393       1.85282826       0.00000000
Si       1.57242483       1.47795912      -1.60919850       0.00000000
Si       2.12260329      -0.30103920       2.47692568       0.00000000
Si       0.17715375       0.55856781       3.57565357       0.00000000
Si      -2.12711562       0.45426294      -2.96165245       0.00000000
Si       0.60575994      -2.26142667      -2.96925070       0.00000000
Si      -2.31526512      -3.00666159      -0.26194883       0.00000000
Si       3.38724486       1.41429780       1.09931770       0.00000000
