10
Lattice="16.28999089631971 0.0 0.0 0.0 16.28999089631971 0.0 0.0 0.0 34.69518985606464" Properties=species:S:1:pos:R:3:initial_magmoms:R:1 pbc="T T T"
Si       0.98018559      -0.83847888      -1.95195247       0.00000000
Si      -1.79080857       1.21280679      -1.00550186       0.00000000
Si       2.02136094       0.84229074       0.98610724       0.00000000
Si      -0.14473665      -1.56787992       1.81622481       0.00000000
Si       2.19349737      -1.28216961       2.01138537       0.00000000
Si       2.23083405       1.08422982      -2.47390720       0.00000000
Si      -3.37015665       1.22535009       0.73484453       0.00000000
Si      -0.63307827      -1.17530721      -3.57162893       0.00000000
Si      -0.97790499       3.37747642      -1.62231329       0.00000000
Si      -2.62272258      -0.11890071      -2.89611320       0.00000000
