10
Lattice="16.28999089631971 0.0 0.0 0.0 16.28999089631971 0.0 0.0 0.0 34.69518985606464" Properties=species:S:1:pos:R:3:initial_magmoms:R:1 pbc="T T T"
Si       1.07285940       1.57607379       1.33826361       0.00000000
Si      -1.06098399       1.64507823      -1.32157522       0.00000000
Si       1.63126431      -1.07924671      -1.33375323       0.00000000
Si      -1.70642637      -1.07594147       1.35075389       0.00000000
Si      -1.58654826       2.33289090       2.07314284       0.00000000
Si      -2.41926048       0.28310391      -2.67843546       0.00000000
Si       0.29996406      -2.43283271      -2.68162742       0.00000000
Si       2.71386513      -2.53497554       0.09006876       0.00000000
Si       2.17372131       0.37611981       3.14768816       0.00000000
Si       2.79109602       2.77692372       0.05530416       0.00000000
