10
Lattice="16.28999089631971 0.0 0.0 0.0 16.28999089631971 0.0 0.0 0.0 34.69518985606464" Properties=species:S:1:pos:R:3:initial_magmoms:R:1 pbc="T T T"
Si      -0.79798194       2.22850458       0.05547764       0.00000000
Si      -1.57980420      -1.79074830      -0.14703830       0.00000000
Si       1.71572796       0.58893237      -1.56298448       0.00000000
Si       1.01485071      -0.98515404       1.98366389       0.00000000
Si       3.07581264       0.10914300       1.79665672       0.00000000
Si       3.50459802      -0.43396560      -0.48271445       0.00000000
Si      -0.29141181      -3.69140264       0.35829743       0.00000000
Si      -0.51406353      -0.35776098       3.69483161       0.00000000
Si      -2.58953985       2.19726036       1.70724716       0.00000000
Si       1.18270287       3.51191223       0.84781213       0.00000000
