10
Lattice="16.28999089631971 0.0 0.0 0.0 16.28999089631971 0.0 0.0 0.0 34.69518985606464" Properties=species:S:1:pos:R:3:initial_magmoms:R:1 pbc="T T T"
Si      -1.88695215       0.83114838      -1.26363422       0.00000000
Si       0.81818154      -1.88432946      -1.28101652       0.00000000
Si       1.67537763       1.76106303       0.11373090       0.00000000
Si       0.29261727      -1.19651679       2.11370154       0.00000000
Si      -0.54499824       2.18294145      -2.64700160       0.00000000
Si       2.18580849      -0.54310860      -2.64734855       0.00000000
Si       1.09760391       0.60326757       3.42965613       0.00000000
Si       2.95202493      -1.95333390       1.37882231       0.00000000
Si       3.51075564       0.81821412      -1.26189946       0.00000000
Si       0.82170018       3.51113031      -1.27421625       0.00000000
