10
Lattice="16.28999089631971 0.0 0.0 0.0 16.28999089631971 0.0 0.0 0.0 34.69518985606464" Properties=species:S:1:pos:R:3:initial_magmoms:R:1 pbc="T T T"
Si       0.52830099      -0.43212483       2.23804917       0.00000000
Si      -0.95879682      -2.10483090      -0.50936037       0.00000000
Si      -1.52849070       1.77200991       0.51657697       0.00000000
Si       1.82329083       0.48941676      -1.63574034       0.00000000
Si       0.57011742      -2.73222396      -2.22052809       0.00000000
Si      -3.15299466      -1.66224789      -1.27664492       0.00000000
Si      -2.46027870       2.52664416      -1.46982784       0.00000000
Si       0.73796958       1.76484231      -3.35637985       0.00000000
Si       0.21655926       1.32388830       3.62991688       0.00000000
Si      -0.32320989       3.64770567       1.30800939       0.00000000
