10
Lattice="16.28999089631971 0.0 0.0 0.0 16.28999089631971 0.0 0.0 0.0 34.69518985606464" Properties=species:S:1:pos:R:3:initial_magmoms:R:1 pbc="T T T"
Si       1.23575940      -1.70610057      -0.96796164       0.00000000
Si      -1.19573487       1.66159629      -1.16902038       0.00000000
Si      -1.96248888      -0.94429872       0.91859036       0.00000000
Si       1.02848544       1.20428712       1.77285580       0.00000000
Si      -2.96054460       1.16809074       0.41131171       0.00000000
Si       2.99332008      -0.19578951      -1.70159184       0.00000000
Si      -1.03070088      -1.69893297       2.90499517       0.00000000
Si      -0.74492541      -2.98950822      -1.76029614       0.00000000
Si       0.17457993       0.17676279       3.69642759       0.00000000
Si      -0.02862153       3.67549641      -0.76728455       0.00000000
