10
Lattice="16.28999089631971 0.0 0.0 0.0 16.28999089631971 0.0 0.0 0.0 34.69518985606464" Properties=species:S:1:pos:R:3:initial_magmoms:R:1 pbc="T T T"
Si      -2.12540517       0.99940779      -0.22142483       0.00000000
Si       1.17918423       0.56581686       1.97186752       0.00000000
Si       1.35907470       0.95478948      -1.78118265       0.00000000
Si      -0.75611664      -2.34624870       0.04843451       0.00000000
Si      -1.08333387       1.61332902      -3.08287751       0.00000000
Si      -2.95323039       0.16938342      -2.33283648       0.00000000
Si       3.30214590       1.49170788       1.26765886       0.00000000
Si       1.53425736      -1.48410045       3.20472709       0.00000000
Si      -3.53369196       0.20484675       1.52558305       0.00000000
Si       0.44064450       2.64000627       2.77419424       0.00000000
