10
Lattice="16.28999089631971 0.0 0.0 0.0 16.28999089631971 0.0 0.0 0.0 34.69518985606464" Properties=species:S:1:pos:R:3:initial_magmoms:R:1 pbc="T T T"
Si       2.12540517      -0.99940779       0.22142483       0.00000000
Si      -1.40828679      -0.79456104       1.74700787       0.00000000
Si      -0.82782522      -0.83002437      -2.11141165       0.00000000
Si       0.28326681       2.41240239      -0.08399710       0.00000000
Si       1.04207130       0.61392123      -2.86145269       0.00000000
Si       1.36928853      -3.34565649       0.26985934       0.00000000
Si      -3.10736637      -0.25347240      -1.97932699       0.00000000
Si      -3.16892628       0.75807144       1.77008019       0.00000000
Si       3.48447987      -0.04461831      -1.55975783       0.00000000
Si       0.64606140       3.01138569      -2.34203071       0.00000000
