10
Lattice="16.28999089631971 0.0 0.0 0.0 16.28999089631971 0.0 0.0 0.0 34.69518985606464" Properties=species:S:1:pos:R:3:initial_magmoms:R:1 pbc="T T T"
Si       1.51110438      -1.12782186       1.45930826       0.00000000
Si      -0.94113520      -1.84888242      -1.27058856       0.00000000
Si      -1.19769347       1.57395609       1.41941571       0.00000000
Si       1.73499414       1.13169888      -1.31753118       0.00000000
Si      -0.09100409       1.88191854      -2.67307301       0.00000000
Si       2.74753167      -2.44235970       0.01090123       0.00000000
Si       0.86181756      -3.42673182      -1.08549097       0.00000000
Si       0.17898149      -2.49302160       2.80649548       0.00000000
Si       3.42742740      -0.59640948      -1.47598420       0.00000000
Si      -2.53726102       0.21996387       2.80909762       0.00000000
