10
Lattice="16.28999089631971 0.0 0.0 0.0 16.28999089631971 0.0 0.0 0.0 34.69518985606464" Properties=species:S:1:pos:R:3:initial_magmoms:R:1 pbc="T T T"
Si       1.35422028       1.35487188       1.35751945       0.00000000
Si       1.35723393      -1.35708732      -1.35786640       0.00000000
Si      -1.35783666       1.35793440      -1.35772762       0.00000000
Si      -1.36259334      -1.35941679       1.35762354       0.00000000
Si       0.00462636      -2.71028133       2.71601037       0.00000000
Si      -0.00149868       2.71479001      -2.71385927       0.00000000
Si      -2.71363707       0.00208512       2.71538586       0.00000000
Si       2.71477737       2.71472402      -0.00041634       0.00000000
Si       2.71443528      -0.00232947      -2.71562872       0.00000000
Si       2.71577106      -2.71430496      -0.00065921       0.00000000
