10
Lattice="16.28999089631971 0.0 0.0 0.0 16.28999089631971 0.0 0.0 0.0 34.69518985606464" Properties=species:S:1:pos:R:3:initial_magmoms:R:1 pbc="T T T"
Si       0.51505722      -2.03664096       1.09248275       0.00000000
Si       0.96148467       1.71007533       1.42042187       0.00000000
Si       1.47872475      -1.20479211      -1.58699357       0.00000000
Si      -1.24036947       1.49113773      -1.58446082       0.00000000
Si       2.24088498      -1.04695830       2.60491631       0.00000000
Si      -1.15352748       2.46422088       2.46873761       0.00000000
Si       2.54345544       2.77575084      -0.19786678       0.00000000
Si      -2.69975799      -2.73610098      -0.18044978       0.00000000
Si      -2.96834751       2.52788220      -0.23977859       0.00000000
Si       0.13308930      -2.55246381      -2.96918131       0.00000000
