10
Lattice="16.28999089631971 0.0 0.0 0.0 16.28999089631971 0.0 0.0 0.0 34.69518985606464" Properties=species:S:1:pos:R:3:initial_magmoms:R:1 pbc="T T T"
Si       2.28913596      -0.09980883      -0.35413400       0.00000000
Si      -0.26865468       1.02846656       2.06492007       0.00000000
Si      -1.21647204       1.59747138      -1.20163388       0.00000000
Si      -0.73946826      -2.24417556      -0.40208278       0.00000000
Si      -2.38501890      -1.33400439      -1.83287851       0.00000000
Si      -1.12037733       0.38133261      -3.21048649       0.00000000
Si      -1.10226285      -2.84315886       1.85595083       0.00000000
Si       0.71079786       3.11587694       1.64167322       0.00000000
Si       2.88121230      -1.59716934       1.58494655       0.00000000
Si       2.67152742      -0.76818753      -2.60956547       0.00000000
