10
Lattice="16.28999089631971 0.0 0.0 0.0 16.28999089631971 0.0 0.0 0.0 34.69518985606464" Properties=species:S:1:pos:R:3:initial_magmoms:R:1 pbc="T T T"
Si       1.46038221      -1.78237035       0.16823707       0.00000000
Si      -1.61326386      -0.33682833      -1.61967645       0.00000000
Si      -0.98018559       0.83847888       1.95195247       0.00000000
Si       1.25064846       1.92270870      -0.52195473       0.00000000
Si       1.04117535       1.68076962       2.93805971       0.00000000
Si      -2.77099416       2.05128567       0.94645061       0.00000000
Si      -0.68387049       0.66575601      -3.52812113       0.00000000
Si       2.65237038       2.27162421       1.27994096       0.00000000
Si       2.21384358      -1.90376343       2.40323306       0.00000000
Si      -3.60290817       0.71957817      -0.94416073       0.00000000
