10
Lattice="16.28999089631971 0.0 0.0 0.0 16.28999089631971 0.0 0.0 0.0 34.69518985606464" Properties=species:S:1:pos:R:3:initial_magmoms:R:1 pbc="T T T"
Si      -1.35922860      -1.35650088      -1.35918482       0.00000000
Si       1.35782526       1.35839052      -1.35942769       0.00000000
Si       1.35940539      -1.35725022       1.35942769       0.00000000
Si      -1.36279047       1.36168110       1.36255026       0.00000000
Si       2.71033509      -2.71780894      -0.00194293       0.00000000
Si       2.71333245       0.00094482      -2.71649610       0.00000000
Si      -0.00117125      -2.71417301      -2.71677366       0.00000000
Si      -2.71759784       2.71433754      -0.00187354       0.00000000
Si       2.71387002       2.71844262      -0.00398995       0.00000000
Si      -0.00057667       2.71555929      -2.71680836       0.00000000
