10
Lattice="16.28999089631971 0.0 0.0 0.0 16.28999089631971 0.0 0.0 0.0 34.69518985606464" Properties=species:S:1:pos:R:3:initial_magmoms:R:1 pbc="T T T"
Si      -1.35570267      -1.35517839      -1.35727659       0.00000000
Si       1.36146176      -1.35412297       1.35852561       0.00000000
Si       1.35858101       1.36044143      -1.35717250       0.00000000
Si      -1.35536058       1.36391120       1.35876848       0.00000000
Si       0.00190593      -2.71235898      -2.71486543       0.00000000
Si       2.71232314      -2.71511199      -0.00086738       0.00000000
Si      -2.71383255       0.00342253      -2.71458787       0.00000000
Si      -2.71625976      -2.71503054       0.00065921       0.00000000
Si       2.71663836       0.00276930      -2.71476134       0.00000000
Si       0.00171045       2.71730069      -2.71496951       0.00000000
