10
Lattice="16.28999089631971 0.0 0.0 0.0 16.28999089631971 0.0 0.0 0.0 34.69518985606464" Properties=species:S:1:pos:R:3:initial_magmoms:R:1 pbc="T T T"
Si      -1.35441576      -1.34692236      -1.36619325       0.00000000
Si       1.35596396       1.36778985      -1.36039915       0.00000000
Si       1.23178464      -1.53666828       1.31498313       0.00000000
Si      -1.57731183       1.14909660       1.37073833       0.00000000
Si      -0.37164006      -2.61624242       2.70816925       0.00000000
Si       0.00094482      -2.71083356      -2.72496173       0.00000000
Si       2.71875443       0.00610875      -2.72294941       0.00000000
Si      -2.71494027       0.00648342      -2.72777205       0.00000000
Si      -2.73714354      -2.70707383      -0.01831907       0.00000000
Si       0.00115659       2.72044629      -2.72482295       0.00000000
