10
Lattice="16.28999089631971 0.0 0.0 0.0 16.28999089631971 0.0 0.0 0.0 34.69518985606464" Properties=species:S:1:pos:R:3:initial_magmoms:R:1 pbc="T T T"
Si       1.49571100      -1.20399716      -1.31942411       0.00000000
Si      -1.23178464       1.53666828      -1.31498313       0.00000000
Si      -1.60342470      -1.07957414       1.39318613       0.00000000
Si       1.65478611       0.99031797       1.43461221       0.00000000
Si       0.24223541       1.06104915       3.47361496       0.00000000
Si       0.13062194      -2.52828826      -2.68141925       0.00000000
Si      -2.58620040       0.18974592      -2.68117638       0.00000000
Si       2.86510868      -2.53491038       0.22055745       0.00000000
Si      -2.80909647       2.68576488       0.05575520       0.00000000
Si      -2.88632736      -2.62613438       0.09051980       0.00000000
