10
Lattice="16.28999089631971 0.0 0.0 0.0 16.28999089631971 0.0 0.0 0.0 34.69518985606464" Properties=species:S:1:pos:R:3:initial_magmoms:R:1 pbc="T T T"
Si       1.39720959       1.89136674       0.44371703       0.00000000
Si      -1.10086191       1.19995398      -1.80942455       0.00000000
Si      -2.25157122       0.02366937       0.93021326       0.00000000
Si       0.99838152      -1.49657859       1.74343426       0.00000000
Si       1.82304648      -1.36453511      -1.75495307       0.00000000
Si       3.22887348      -1.53023210       1.02163513       0.00000000
Si       3.66870659       0.77608818       0.32547576       0.00000000
Si      -2.17372131      -0.37611981      -3.14768816       0.00000000
Si       0.91689894      -0.39288222       3.73712507       0.00000000
Si       0.61737471       2.40080391      -3.09238400       0.00000000
