10
Lattice="16.28999089631971 0.0 0.0 0.0 16.28999089631971 0.0 0.0 0.0 34.69518985606464" Properties=species:S:1:pos:R:3:initial_magmoms:R:1 pbc="T T T"
Si      -2.23049196       0.03365351       0.72179913       0.00000000
Si      -0.60062859      -1.66869126      -1.56340082       0.00000000
Si       1.00542110      -1.20034543       1.78263985       0.00000000
Si       0.43983311       2.30632028      -0.69615937       0.00000000
Si      -1.40582700       0.16569699      -2.77658821       0.00000000
Si      -0.50692851      -0.37399071       3.45401217       0.00000000
Si       3.13094519      -0.12435949       1.94837887       0.00000000
Si      -3.22887348       1.53023210      -1.02163513       0.00000000
Si      -2.31197454       1.13734988       2.71548994       0.00000000
Si       1.46057022       3.39721271       1.16006902       0.00000000
