10
Lattice="16.28999089631971 0.0 0.0 0.0 16.28999089631971 0.0 0.0 0.0 34.69518985606464" Properties=species:S:1:pos:R:3:initial_magmoms:R:1 pbc="T T T"
Si      -2.06096193      -1.09429704       0.18700718       0.00000000
Si       2.06710326      -0.89093268       0.71510296       0.00000000
Si       0.42878538      -0.54310860      -2.27937116       0.00000000
Si      -0.80778852       2.12734368       0.77179493       0.00000000
Si      -3.07581264      -0.10914300      -1.79665672       0.00000000
Si      -1.36008468       0.47978937      -3.35964120       0.00000000
Si       1.17994986       3.32135181       1.36966278       0.00000000
Si       2.55406023       0.31206753      -2.79709307       0.00000000
Si       1.72385667      -3.23482652       1.09348891       0.00000000
Si       0.30186999      -2.94826913      -2.43112801       0.00000000
