10
Lattice="16.28999089631971 0.0 0.0 0.0 16.28999089631971 0.0 0.0 0.0 34.69518985606464" Properties=species:S:1:pos:R:3:initial_magmoms:R:1 pbc="T T T"
Si      -0.84778047      -1.15308765      -1.81580847       0.00000000
Si       2.13979643      -1.02804561      -0.11595139       0.00000000
Si       0.41088367       2.14959582      -0.97375574       0.00000000
Si      -1.18711746      -0.50603256       2.02366747       0.00000000
Si       0.40228255       1.02921849       3.27286848       0.00000000
Si       0.86756535      -0.35914563      -3.38174205       0.00000000
Si      -0.73202373      -2.84464939       2.15998495       0.00000000
Si      -1.73493387       3.05919684      -1.16124865       0.00000000
Si       1.63177160       1.82794977      -2.98965149       0.00000000
Si      -2.91488373      -0.26215497      -2.53091143       0.00000000
