10
Lattice="16.28999089631971 0.0 0.0 0.0 16.28999089631971 0.0 0.0 0.0 34.69518985606464" Properties=species:S:1:pos:R:3:initial_magmoms:R:1 pbc="T T T"
Si       1.35772263      -1.35661491      -1.35710311       0.00000000
Si      -1.35987291      -1.35659862       1.35505609       0.00000000
Si       1.35622395       1.35736425       1.35800519       0.00000000
Si      -1.35790182       1.35871632      -1.35731128       0.00000000
Si      -2.70669753      -0.00461007       2.71035505       0.00000000
Si       0.00065160      -2.71000440       2.71663488       0.00000000
Si      -2.71419093      -2.71306692       0.00034695       0.00000000
Si       2.71459319      -2.71347417       0.00069390       0.00000000
Si       0.00022806       2.71482624      -2.71417152       0.00000000
Si       2.71508842       0.00071676      -2.71406744       0.00000000
