10
Lattice="16.28999089631971 0.0 0.0 0.0 16.28999089631971 0.0 0.0 0.0 34.69518985606464" Properties=species:S:1:pos:R:3:initial_magmoms:R:1 pbc="T T T"
Si      -1.39720959      -1.89136674      -0.44371703       0.00000000
Si       0.19543113       1.69225407      -1.71640670       0.00000000
Si       2.27149700      -1.11527856      -0.11824127       0.00000000
Si      -1.47507579       1.66762359       1.31661380       0.00000000
Si      -0.54322263       0.11624544       3.09717194       0.00000000
Si      -2.49807150      -0.69141276      -2.25314158       0.00000000
Si      -0.39882807      -3.38794533       1.29971723       0.00000000
Si      -0.77983488       0.50943717      -3.53610103       0.00000000
Si       3.29223411      -0.02438613       1.73798712       0.00000000
Si       1.68515163       0.84722661       3.29202023       0.00000000
