10
Lattice="16.28999089631971 0.0 0.0 0.0 16.28999089631971 0.0 0.0 0.0 34.69518985606464" Properties=species:S:1:pos:R:3:initial_magmoms:R:1 pbc="T T T"
Si       1.18270287      -0.98191233      -1.72525397       0.00000000
Si       1.44515106       0.44281107       1.79207695       0.00000000
Si      -0.35507313       2.04991731      -1.23285957       0.00000000
Si      -1.75756068      -1.51031106       0.73363020       0.00000000
Si      -2.99332008       0.19578951       1.70159184       0.00000000
Si      -0.51961842      -2.31005232      -2.63645426       0.00000000
Si       2.49083874       0.82556091      -2.51221071       0.00000000
Si       1.31549895      -1.59172848       3.05213756       0.00000000
Si      -0.67223943      -2.78573661       2.45426971       0.00000000
Si       0.37106991       1.79766666       3.35138374       0.00000000
