10
Lattice="16.28999089631971 0.0 0.0 0.0 16.28999089631971 0.0 0.0 0.0 34.69518985606464" Properties=species:S:1:pos:R:3:initial_magmoms:R:1 pbc="T T T"
Si      -1.35161388       1.36241415       1.35640921       0.00000000
Si      -1.35628911      -1.35791811      -1.35956647       0.00000000
Si       1.35953082       1.35839052      -1.36026037       0.00000000
Si       1.36313091      -1.36057338       1.35994812       0.00000000
Si       2.71497285       2.71218726      -0.00496141       0.00000000
Si       2.71445157      -2.71611315      -0.00260214       0.00000000
Si      -2.71414206      -0.00001629      -2.71743287       0.00000000
Si      -2.71883358       2.71327869      -0.00197763       0.00000000
Si       0.00032580      -2.71476108      -2.71791861       0.00000000
Si       0.00099369       2.71560816      -2.71746757       0.00000000
