10
Lattice="16.28999089631971 0.0 0.0 0.0 16.28999089631971 0.0 0.0 0.0 34.69518985606464" Properties=species:S:1:pos:R:3:initial_magmoms:R:1 pbc="T T T"
Si      -1.54206027       0.93494826       1.49276138       0.00000000
Si       1.32671401       1.37689596      -1.36327886       0.00000000
Si      -1.37529954      -1.35086454      -1.35738067       0.00000000
Si       1.82861670      -0.91411335       1.38739203       0.00000000
Si      -0.13623327       2.42346330       2.63295004       0.00000000
Si      -1.80211383      -0.86428224       3.09148192       0.00000000
Si       2.68615488       2.71127502       0.01342705       0.00000000
Si       2.69977169      -2.69882946       0.02525811       0.00000000
Si       2.69119338       0.00798210      -2.71760635       0.00000000
Si      -0.02397888      -2.70640431      -2.71993093       0.00000000
