10
Lattice="16.28999089631971 0.0 0.0 0.0 16.28999089631971 0.0 0.0 0.0 34.69518985606464" Properties=species:S:1:pos:R:3:initial_magmoms:R:1 pbc="T T T"
Si       1.16988264      -1.80485055      -1.07957613       0.00000000
Si      -1.35907470      -0.95478948       1.78118265       0.00000000
Si       1.72724499       1.53819954       0.86828231       0.00000000
Si      -2.44240857       0.65853954      -1.30169486       0.00000000
Si       1.94307120       0.53691840       3.04884151       0.00000000
Si      -0.17989047      -0.38897262       3.75305017       0.00000000
Si       2.11533795      -0.96910839      -3.00096212       0.00000000
Si      -3.48447987       0.04461831       1.55975783       0.00000000
Si       3.08402280      -2.29578228       0.27794332       0.00000000
Si       2.45070018       1.28006820      -2.73752140       0.00000000
