10
Lattice="16.28999089631971 0.0 0.0 0.0 16.28999089631971 0.0 0.0 0.0 34.69518985606464" Properties=species:S:1:pos:R:3:initial_magmoms:R:1 pbc="T T T"
Si       0.58103172       0.75520440      -2.14933352       0.00000000
Si       0.30457413      -2.33494344       0.21077340       0.00000000
Si      -2.33497602      -0.38271726       0.02869294       0.00000000
Si       0.90077184       1.06362297       1.92929650       0.00000000
Si      -2.03133042      -2.73253347       0.33383730       0.00000000
Si       0.26867097       3.10822974      -1.86091224       0.00000000
Si      -1.16010864      -0.00850338      -3.57114319       0.00000000
Si       3.12287445       0.20984778       2.08896385       0.00000000
Si      -3.08843739      -0.26132418      -2.20630305       0.00000000
Si      -3.33550782       1.07735544       1.58879772       0.00000000
