10
Lattice="16.28999089631971 0.0 0.0 0.0 16.28999089631971 0.0 0.0 0.0 34.69518985606464" Properties=species:S:1:pos:R:3:initial_magmoms:R:1 pbc="T T T"
Si      -1.38370518       1.29303504       1.41776074       0.00000000
Si       0.89075349       1.41962463      -1.68687209       0.00000000
Si       1.34293131      -1.39468464       1.42160150       0.00000000
Si      -1.12653495      -1.78627995      -1.17823647       0.00000000
Si       2.51027271       2.54394414      -0.12912863       0.00000000
Si       2.61610884      -2.73013884      -0.01971382       0.00000000
Si       0.65534670      -3.59813520      -1.08238679       0.00000000
Si      -0.01663209       2.65720851       2.78254537       0.00000000
Si      -2.97613413       2.46865176       0.07325893       0.00000000
Si       2.70153360      -0.06172281       2.78865173       0.00000000
