10
Lattice="16.28999089631971 0.0 0.0 0.0 16.28999089631971 0.0 0.0 0.0 34.69518985606464" Properties=species:S:1:pos:R:3:initial_magmoms:R:1 pbc="T T T"
Si       1.39031796      -1.30277646      -1.47822409       0.00000000
Si      -1.43207019      -1.59058818       1.14129891       0.00000000
Si       1.21861973       1.32429555       1.63726692       0.00000000
Si      -1.33359714       1.42529355      -1.46632363       0.00000000
Si      -0.88741404       2.39845815       2.43459753       0.00000000
Si       0.03087709      -2.63715552      -2.85492999       0.00000000
Si      -2.66993100       0.06843429      -2.85319523       0.00000000
Si       2.77592093       2.77751016       0.04878146       0.00000000
Si       2.36819852      -3.12864111      -0.21018358       0.00000000
Si       2.75202350       0.07340274      -2.85281358       0.00000000
