10
Lattice="16.28999089631971 0.0 0.0 0.0 16.28999089631971 0.0 0.0 0.0 34.69518985606464" Properties=species:S:1:pos:R:3:initial_magmoms:R:1 pbc="T T T"
Si      -0.80519841       1.83438825      -1.21318738       0.00000000
Si       0.60062859       1.66869126       1.56340082       0.00000000
Si      -1.99317924      -1.17322209       0.75167171       0.00000000
Si       2.10603377      -1.07416260      -0.79733060       0.00000000
Si      -2.08810107       0.28782801      -2.51585371       0.00000000
Si      -1.62986337       1.70234477       2.28519996       0.00000000
Si       0.88741404      -2.39845815      -2.43459753       0.00000000
Si       1.60604969       0.46834583       3.34604067       0.00000000
Si      -3.67007184      -0.77784750      -0.89756506       0.00000000
Si      -2.37557070      -0.50484339       3.00710318       0.00000000
