10
Lattice="16.28999089631971 0.0 0.0 0.0 16.28999089631971 0.0 0.0 0.0 34.69518985606464" Properties=species:S:1:pos:R:3:initial_magmoms:R:1 pbc="T T T"
Si       1.48499640       1.16512500       1.44148186       0.00000000
Si       0.13385493      -2.43305811       0.13801754       0.00000000
Si       1.02599307       0.51279291      -2.15592561       0.00000000
Si      -2.01473091       1.00765788       1.06344286       0.00000000
Si      -0.49824594      -0.38845134      -3.65219120       0.00000000
Si       1.02990267       3.50374184       1.30516438       0.00000000
Si       3.67138874       0.28346229       1.22855736       0.00000000
Si       3.59183164      -1.41418377      -0.45124589       0.00000000
Si      -0.37123281      -3.06154260       2.37922397       0.00000000
Si      -2.37452814      -0.37954071       3.10265378       0.00000000
