10
Lattice="16.28999089631971 0.0 0.0 0.0 16.28999089631971 0.0 0.0 0.0 34.69518985606464" Properties=species:S:1:pos:R:3:initial_magmoms:R:1 pbc="T T T"
Si      -1.52423901      -0.90124425      -1.49626559       0.00000000
Si       2.10024105      -1.06111431      -0.43212883       0.00000000
Si       0.34324659       2.34389384      -0.37838595       0.00000000
Si      -1.02599307      -0.51279291       2.15592561       0.00000000
Si       2.56583857      -1.92697668       1.70467972       0.00000000
Si       0.45900333       0.65233209       3.59740747       0.00000000
Si      -3.68935920      -0.21680361      -0.72995251       0.00000000
Si       3.72478085       0.69177181      -0.25577308       0.00000000
Si      -1.42198668       0.28655739      -3.52461692       0.00000000
Si      -1.72385667       3.23482652      -1.09348891       0.00000000
