10
Lattice="16.28999089631971 0.0 0.0 0.0 16.28999089631971 0.0 0.0 0.0 34.69518985606464" Properties=species:S:1:pos:R:3:initial_magmoms:R:1 pbc="T T T"
Si      -0.13667570       2.25903204      -0.76572327       0.00000000
Si       0.10513371       0.57822984       2.32568927       0.00000000
Si       2.14059364      -1.10218140       0.18253150       0.00000000
Si      -1.58940001      -1.53525105      -1.24920101       0.00000000
Si       1.90808647      -0.99961956       2.51078686       0.00000000
Si      -0.40228255      -1.02921849      -3.27286848       0.00000000
Si      -2.15917534       2.39368518      -2.07817364       0.00000000
Si       1.15935572       2.49890229      -2.68762969       0.00000000
Si       3.04358092       1.21080312      -2.02637370       0.00000000
Si      -1.72903789      -0.23139945       3.51271095       0.00000000
