10
Lattice="16.28999089631971 0.0 0.0 0.0 16.28999089631971 0.0 0.0 0.0 34.69518985606464" Properties=species:S:1:pos:R:3:initial_magmoms:R:1 pbc="T T T"
Si      -1.54678437      -1.08243792      -1.43426526       0.00000000
Si      -0.34109631       0.14996574       2.45409624       0.00000000
Si       1.19311218       1.71447363      -1.40224158       0.00000000
Si       2.13923538      -1.51873299      -0.04257102       0.00000000
Si       2.06255835      -0.56715264       2.27038510       0.00000000
Si       0.19963395      -1.98539262      -2.71611446       0.00000000
Si      -1.07859348       2.46405798       2.53660144       0.00000000
Si      -2.52466492       0.74342673      -2.70230576       0.00000000
Si       2.31526512       3.00666159       0.26194883       0.00000000
Si       3.47079627       1.16406711       1.33635537       0.00000000
