10
Lattice="16.28999089631971 0.0 0.0 0.0 16.28999089631971 0.0 0.0 0.0 34.69518985606464" Properties=species:S:1:pos:R:3:initial_magmoms:R:1 pbc="T T T"
Si      -1.52025857      -1.02288168       1.58399386       0.00000000
Si       1.23023856       1.51264053       1.52646920       0.00000000
Si      -0.28428740       1.75777245      -1.81098584       0.00000000
Si       1.01238424      -2.12444406      -1.09220519       0.00000000
Si      -2.23431443      -0.51160374      -2.31673790       0.00000000
Si       1.98856575      -0.79664616      -2.74553599       0.00000000
Si       3.15206271       0.99803943      -1.31505252       0.00000000
Si       2.47391001       2.92433193       0.06546986       0.00000000
Si      -0.09430514      -2.43240651       3.00028353       0.00000000
Si      -3.48102071      -1.89087804       0.52132089       0.00000000
