10
Lattice="16.28999089631971 0.0 0.0 0.0 16.28999089631971 0.0 0.0 0.0 34.69518985606464" Properties=species:S:1:pos:R:3:initial_magmoms:R:1 pbc="T T T"
Si       0.88172883       1.91258351       1.21374251       0.00000000
Si       1.32721146      -1.36278882      -1.52440341       0.00000000
Si      -1.36939767       1.33091322      -1.53998156       0.00000000
Si      -1.55730119      -1.45321461       1.58848546       0.00000000
Si      -2.86510868       2.53491038      -0.22055745       0.00000000
Si       2.33217414      -3.10923972      -0.22694136       0.00000000
Si       2.76899049       2.75223527      -0.11959439       0.00000000
Si      -1.21032256       3.52522835       1.21405476       0.00000000
Si      -2.77592093      -2.77751016      -0.04878146       0.00000000
Si       2.69228088       0.01064747      -2.90270529       0.00000000
