10
Lattice="10.86 0.0 0.0 0.0 10.86 0.0 0.0 0.0 10.86" Properties=species:S:1:pos:R:3:initial_magmoms:R:1 pbc="T T T"
Si      -1.03979070      -1.50361044       1.59803814       0.00000000
Si       1.67520930      -1.50361044      -1.11696186       0.00000000
Si       1.67520930       1.21138956       1.59803814       0.00000000
Si      -2.23203408      -0.09540510      -2.58873078       0.00000000
Si      -2.61840030       0.17879904       2.60367414       0.00000000
Si      -2.39729070      -2.86111044       0.24053814       0.00000000
Si       0.31770930      -2.86111044      -2.47446186       0.00000000
Si       0.42121596       2.83347174      -2.57583996       0.00000000
Si       3.03270930      -0.14611044      -2.47446186       0.00000000
Si       3.03270930       2.56888956       0.24053814       0.00000000
