10
Lattice="10.86 0.0 0.0 0.0 10.86 0.0 0.0 0.0 10.86" Properties=species:S:1:pos:R:3:initial_magmoms:R:1 pbc="T T T"
Si      -1.53132516      -1.76433732      -0.54008952       0.00000000
Si      -1.43311818       0.71959446       1.86212076       0.00000000
Si       1.08444702      -1.67709894       1.55717196       0.00000000
Si       0.06418260       1.94228928      -1.98243870       0.00000000
Si      -2.76694338       2.07049158       0.55153596       0.00000000
Si      -2.76694338      -0.64450842      -2.16346404       0.00000000
Si      -1.38327078       3.36754482      -0.77077764       0.00000000
Si      -1.48722270       0.82685868      -3.42366930       0.00000000
Si      -0.05194338       2.07049158       3.26653596       0.00000000
Si      -0.05194338      -3.35950842      -2.16346404       0.00000000
