10
Lattice="10.86 0.0 0.0 0.0 10.86 0.0 0.0 0.0 10.86" Properties=species:S:1:pos:R:3:initial_magmoms:R:1 pbc="T T T"
Si       1.64499678       0.91523736       1.11093456       0.00000000
Si      -1.26045504      -1.60227354       1.09550250       0.00000000
Si      -1.26045504       1.11272646      -1.61949750       0.00000000
Si       1.45454496      -1.60227354      -1.61949750       0.00000000
Si       0.07522722       2.33053428       2.35437198       0.00000000
Si      -2.61795504      -0.24477354       2.45300250       0.00000000
Si      -2.61795504       2.47022646      -0.26199750       0.00000000
Si       3.16961046      -1.21626570       1.34165526       0.00000000
Si       0.09704496       2.47022646      -2.97699750       0.00000000
Si      -2.61795504      -2.95977354      -0.26199750       0.00000000
