10
Lattice="10.86 0.0 0.0 0.0 10.86 0.0 0.0 0.0 10.86" Properties=species:S:1:pos:R:3:initial_magmoms:R:1 pbc="T T T"
Si      -1.49881032       1.20884832      -1.16011950       0.00000000
Si       1.21618968      -1.50615168      -1.16011950       0.00000000
Si       1.21618968       1.20884832       1.55488050       0.00000000
Si      -1.30835850      -1.70364078       1.57031256       0.00000000
Si      -0.14131032       2.56634832      -2.51761950       0.00000000
Si       2.57368968      -0.14865168      -2.51761950       0.00000000
Si       2.57368968       2.56634832       0.19738050       0.00000000
Si      -2.85631032      -0.14865168      -2.51761950       0.00000000
Si      -0.14131032      -2.86365168      -2.51761950       0.00000000
Si      -2.85631032       2.56634832       0.19738050       0.00000000
