10
Lattice="10.86 0.0 0.0 0.0 10.86 0.0 0.0 0.0 10.86" Properties=species:S:1:pos:R:3:initial_magmoms:R:1 pbc="T T T"
Si      -1.30780464       1.25714274      -1.26355014       0.00000000
Si       1.36386396       1.57807746       0.99737154       0.00000000
Si       1.40719536      -1.45785726      -1.26355014       0.00000000
Si      -1.30780464      -1.45785726       1.45144986       0.00000000
Si       2.69539770       0.34098228       2.42737290       0.00000000
Si       0.02109012       2.43629982       2.73666570       0.00000000
Si       1.24458858       3.31366836      -0.96718074       0.00000000
Si      -2.66530464       2.61464274       0.09394986       0.00000000
Si      -2.66530464      -0.10035726      -2.62105014       0.00000000
Si      -0.01504110       2.51874894      -2.77100502       0.00000000
