10
Lattice="10.86 0.0 0.0 0.0 10.86 0.0 0.0 0.0 10.86" Properties=species:S:1:pos:R:3:initial_magmoms:R:1 pbc="T T T"
Si      -1.32889476      -1.17915708       1.42978416       0.00000000
Si       1.34277384      -0.85822236      -1.73929416       0.00000000
Si      -1.32889476       1.53584292      -1.28521584       0.00000000
Si       1.38610524       1.53584292       1.42978416       0.00000000
Si       2.67430758      -2.09531754      -0.30929280       0.00000000
Si      -0.02109012      -2.43629982      -2.73666570       0.00000000
Si      -2.68639476      -2.53665708       0.07228416       0.00000000
Si       0.02860524      -2.53665708       2.78728416       0.00000000
Si      -2.68639476       0.17834292      -2.64271584       0.00000000
Si      -2.68639476       0.17834292       2.78728416       0.00000000
