10
Lattice="10.86 0.0 0.0 0.0 10.86 0.0 0.0 0.0 10.86" Properties=species:S:1:pos:R:3:initial_magmoms:R:1 pbc="T T T"
Si      -1.36386396      -1.57807746      -0.99737154       0.00000000
Si       1.33153374      -1.23709518       1.43000136       0.00000000
Si      -1.34277384       0.85822236       1.73929416       0.00000000
Si      -0.11927538       1.73559090      -1.96455228       0.00000000
Si      -2.67166860      -0.32093472      -2.26092168       0.00000000
Si      -2.67166860       2.39406528       0.45407832       0.00000000
Si       0.04333140      -3.03593472      -2.26092168       0.00000000
Si       0.04333140       2.39406528       3.16907832       0.00000000
Si      -2.67166860      -3.03593472       0.45407832       0.00000000
Si      -1.28262030       3.73692600      -1.08850866       0.00000000
