10
Lattice="10.86 0.0 0.0 0.0 10.86 0.0 0.0 0.0 10.86" Properties=species:S:1:pos:R:3:initial_magmoms:R:1 pbc="T T T"
Si       1.34519562      -1.31117124      -1.35913986       0.00000000
Si      -1.36980438      -1.31117124       1.35586014       0.00000000
Si       1.34519562       1.40382876       1.35586014       0.00000000
Si      -2.79660204      -2.22733170      -0.38321682       0.00000000
Si       2.70269562      -2.66867124      -0.00163986       0.00000000
Si      -0.01230438      -2.66867124       2.71336014       0.00000000
Si       2.70269562       0.04632876       2.71336014       0.00000000
Si       2.70269562       0.04632876      -2.71663986       0.00000000
Si      -2.72730438       0.04632876       2.71336014       0.00000000
Si       2.70269562       2.76132876      -0.00163986       0.00000000
