10
Lattice="16.28999089631971 0.0 0.0 0.0 16.28999089631971 0.0 0.0 0.0 34.61538196595647" Properties=species:S:1:pos:R:3:initial_magmoms:R:1 pbc="T T T"
Si      -1.34262343      -1.34407857       1.38595913       0.00000000
Si       1.37367054       1.36947284       1.38353605       0.00000000
Si      -1.41413653       1.33626730      -1.46913648       0.00000000
Si       1.39152438      -1.46845272      -1.42524761       0.00000000
Si       0.48441573       2.05099268      -2.68165545       0.00000000
Si       2.28221271       0.38026584      -2.52257556       0.00000000
Si      -2.69864117      -0.31588635      -2.64975359       0.00000000
Si      -2.67827867      -2.72928243       0.01970655       0.00000000
Si      -2.69750087       2.72425838       0.02378078       0.00000000
Si       2.73888657      -2.70232248       0.02010463       0.00000000
