10
Lattice="16.28999089631971 0.0 0.0 0.0 16.28999089631971 0.0 0.0 0.0 34.61538196595647" Properties=species:S:1:pos:R:3:initial_magmoms:R:1 pbc="T T T"
Si      -1.35735732       1.35776498       1.35723527       0.00000000
Si       1.35784969      -1.35743340       1.35720065       0.00000000
Si       1.35806146       1.35701564      -1.35744296       0.00000000
Si      -1.35872348      -1.35942953      -1.35643912       0.00000000
Si      -2.71387557       0.00025412       2.71495516       0.00000000
Si      -2.71283301      -0.00141886      -2.71606285       0.00000000
Si      -0.00044146       2.71454279       2.71450516       0.00000000
Si       0.00079169      -2.71498655       2.71408977       0.00000000
Si       2.71508362      -0.00075911       2.71453977       0.00000000
Si      -2.71530909      -2.71446527       0.00034615       0.00000000
