10
Lattice="16.28999089631971 0.0 0.0 0.0 16.28999089631971 0.0 0.0 0.0 34.61538196595647" Properties=species:S:1:pos:R:3:initial_magmoms:R:1 pbc="T T T"
Si       1.75847292       1.04854006       1.09343372       0.00000000
Si      -0.89068833      -1.84871856       1.09732795       0.00000000
Si       0.84551616      -0.64684236      -2.10493732       0.00000000
Si      -1.79779698       1.67072683      -0.15907989       0.00000000
Si      -2.28221271      -0.38026584       2.52257556       0.00000000
Si       0.45348102       2.34498622       2.55444250       0.00000000
Si       1.57744215       1.52084254      -2.88946078       0.00000000
Si      -1.16009235      -1.16932782      -3.38241871       0.00000000
Si      -1.03666302       3.48228886       1.14437374       0.00000000
Si       2.24042886       2.98431985      -0.79467515       0.00000000
