10
Lattice="16.28999089631971 0.0 0.0 0.0 16.28999089631971 0.0 0.0 0.0 34.61538196595647" Properties=species:S:1:pos:R:3:initial_magmoms:R:1 pbc="T T T"
Si       1.25626851       1.70145792      -1.27125061       0.00000000
Si      -1.76886594       1.62267948       0.58766567       0.00000000
Si      -0.66298671      -1.46347731      -2.09478563       0.00000000
Si      -0.48195594      -1.93577980       1.88810887       0.00000000
Si       2.16103140       0.68188311       1.94840890       0.00000000
Si      -0.37491435       3.50075358      -1.43508531       0.00000000
Si      -2.24042886      -2.98431985       0.79467515       0.00000000
Si      -3.27709188       0.49796901       1.93904890       0.00000000
Si      -1.78694784      -0.63933363       3.34911766       0.00000000
Si      -2.63161692       2.38565421      -1.49877765       0.00000000
