10
Lattice="16.28999089631971 0.0 0.0 0.0 16.28999089631971 0.0 0.0 0.0 34.61538196595647" Properties=species:S:1:pos:R:3:initial_magmoms:R:1 pbc="T T T"
Si       0.00123804       2.30635449       0.43341944       0.00000000
Si      -0.40018666       1.32670647      -1.94548940       0.00000000
Si       2.27613654      -0.94697028       0.27474244       0.00000000
Si      -2.05477892      -1.43836627       0.35574248       0.00000000
Si      -2.25542285       2.36680668       0.73128497       0.00000000
Si       1.09042002       2.04916797       2.56198970       0.00000000
Si       1.76867046      -1.56343112       2.62447050       0.00000000
Si      -1.77117002      -0.03772764      -3.28794389       0.00000000
Si       2.73232170      -1.93172847      -1.94081632       0.00000000
Si      -3.35252177      -1.01100627      -1.75932777       0.00000000
