10
Lattice="16.28999089631971 0.0 0.0 0.0 16.28999089631971 0.0 0.0 0.0 34.61538196595647" Properties=species:S:1:pos:R:3:initial_magmoms:R:1 pbc="T T T"
Si       1.35799956       1.35716877      -1.35910450       0.00000000
Si      -1.35744570      -1.35801585      -1.35889681       0.00000000
Si      -1.35907470       1.35772263       1.36000450       0.00000000
Si       1.36088289      -1.36068741       1.35699296       0.00000000
Si       2.71516833      -2.71410948      -0.00200769       0.00000000
Si       2.70560610      -0.00723276       2.72544362       0.00000000
Si      -0.00011403      -2.71480995      -2.71661669       0.00000000
Si      -2.71593233      -2.71552671      -0.00225000       0.00000000
Si       2.71510317      -0.00035838      -2.71640900       0.00000000
Si      -0.00053757       2.71534752      -2.71640900       0.00000000
