10
Lattice="16.28999089631971 0.0 0.0 0.0 16.28999089631971 0.0 0.0 0.0 34.61538196595647" Properties=species:S:1:pos:R:3:initial_magmoms:R:1 pbc="T T T"
Si       1.35728280       1.35659862      -1.35751219       0.00000000
Si      -1.35759231       1.35751086       1.35668142       0.00000000
Si       1.35853713      -1.35817875       1.35730450       0.00000000
Si      -1.35892809      -1.35938421      -1.35751219       0.00000000
Si      -0.00218286       2.71420722       2.71447054       0.00000000
Si      -2.71439781       2.71440270      -0.00034615       0.00000000
Si       2.71518462       2.71482624      -0.00062308       0.00000000
Si      -2.71496796      -2.71513575      -0.00010385       0.00000000
Si      -2.71596491       0.00128691       2.71495516       0.00000000
Si      -0.00140094       2.71311579      -2.71810516       0.00000000
