10
Lattice="16.28999089631971 0.0 0.0 0.0 16.28999089631971 0.0 0.0 0.0 34.61538196595647" Properties=species:S:1:pos:R:3:initial_magmoms:R:1 pbc="T T T"
Si       1.35117405       1.36028016      -1.38222759       0.00000000
Si      -1.36549296      -1.35508365      -1.38167374       0.00000000
Si      -1.35062019       1.42664562       1.43280069       0.00000000
Si       1.34969166      -1.46614887       1.47856225       0.00000000
Si       2.68255575       2.72793969      -0.01017693       0.00000000
Si       2.69918784      -2.72003904      -0.01623462       0.00000000
Si      -2.71882218      -2.71181259      -0.00214615       0.00000000
Si      -2.72927058       2.70795186      -0.02454232       0.00000000
Si       2.70974376       0.00289962      -2.74351286       0.00000000
Si      -0.00641826      -2.71280628      -2.74167825       0.00000000
