10
Lattice="16.28999089631971 0.0 0.0 0.0 16.28999089631971 0.0 0.0 0.0 34.61538196595647" Properties=species:S:1:pos:R:3:initial_magmoms:R:1 pbc="T T T"
Si       1.76156802       1.41182172       0.53158872       0.00000000
Si       0.73386450      -0.52650909      -2.15975873       0.00000000
Si      -2.15358687       0.71825868      -0.76759652       0.00000000
Si      -0.51917859      -1.07882154       2.20725106       0.00000000
Si      -3.36338001      -1.15049754       0.13271545       0.00000000
Si       0.54397197       0.55482111       3.50858246       0.00000000
Si       3.54551850      -0.13250286       1.03174665       0.00000000
Si       0.75364056       2.71710684       2.40144347       0.00000000
Si      -1.13319756      -1.48297644      -3.27825158       0.00000000
Si       2.66375709      -2.01844503      -2.09686255       0.00000000
