10
Lattice="16.28999089631971 0.0 0.0 0.0 16.28999089631971 0.0 0.0 0.0 34.61538196595647" Properties=species:S:1:pos:R:3:initial_magmoms:R:1 pbc="T T T"
Si      -0.73189341       2.07321201       0.84011579       0.00000000
Si       2.15358687      -0.71825868       0.76759652       0.00000000
Si      -1.20979314      -1.86875622       0.90031197       0.00000000
Si      -1.67992254       0.69155937      -2.55641662       0.00000000
Si      -1.05674859       2.70055620      -1.39351221       0.00000000
Si       2.88745137      -1.24476777      -1.39216221       0.00000000
Si       1.02038931      -2.20123512      -2.51065506       0.00000000
Si      -3.31904515      -0.43359093      -1.19391981       0.00000000
Si      -3.31135627      -0.53911755       1.18235826       0.00000000
Si      -0.67541598      -1.93196142       3.24972849       0.00000000
