10
Lattice="16.28999089631971 0.0 0.0 0.0 16.28999089631971 0.0 0.0 0.0 34.61538196595647" Properties=species:S:1:pos:R:3:initial_magmoms:R:1 pbc="T T T"
Si      -0.92074338      -1.16295939      -1.76050470       0.00000000
Si      -0.33752880       2.27488221       0.29693091       0.00000000
Si       2.26040040      -0.18265977      -0.61861184       0.00000000
Si       0.17679537      -1.00121598       2.14297026       0.00000000
Si       1.34519562       2.48143941       1.89052014       0.00000000
Si       0.37998054       0.97093287       3.41643626       0.00000000
Si      -0.24998634      -3.40734672      -1.11274669       0.00000000
Si       3.20675166       1.44037809       0.83623886       0.00000000
Si       2.81945691      -2.35151037       0.17266162       0.00000000
Si      -3.26534679      -0.81634077      -1.53851613       0.00000000
