10
Lattice="16.28999089631971 0.0 0.0 0.0 16.28999089631971 0.0 0.0 0.0 34.61538196595647" Properties=species:S:1:pos:R:3:initial_magmoms:R:1 pbc="T T T"
Si       0.89068833       1.84871856      -1.09732795       0.00000000
Si       1.34736219      -1.23386976       1.44535224       0.00000000
Si      -0.78910389      -1.74615768      -1.42514519       0.00000000
Si      -1.39152438       1.46845272       1.42524761       0.00000000
Si       2.51825481      -2.61389340      -0.08838697       0.00000000
Si      -2.59810350      -2.72033226      -0.07429157       0.00000000
Si      -0.02272455      -2.59177158       2.80847212       0.00000000
Si       1.73620449       1.20187620      -3.20226528       0.00000000
Si      -0.90710865       3.51944540      -1.25640784       0.00000000
Si       2.69470809       0.12460221       2.80736443       0.00000000
