10
Lattice="16.28999089631971 0.0 0.0 0.0 16.28999089631971 0.0 0.0 0.0 34.61538196595647" Properties=species:S:1:pos:R:3:initial_magmoms:R:1 pbc="T T T"
Si      -1.96190244       1.04055633      -0.96618508       0.00000000
Si       1.30707702       1.36420605       1.53162766       0.00000000
Si      -0.20966859      -2.16228573       1.10713900       0.00000000
Si       1.00792746      -1.30528512      -1.86985475       0.00000000
Si       1.68637338       0.99947295      -2.12074718       0.00000000
Si      -0.42173181       2.54052324      -2.10087794       0.00000000
Si      -0.75364056      -2.71710684      -2.40144347       0.00000000
Si       3.40215021       0.34207371       1.46938917       0.00000000
Si       1.91769138      -3.15364626       0.85558887       0.00000000
Si      -3.36196278       1.62349398       0.85261195       0.00000000
