10
Lattice="16.28999089631971 0.0 0.0 0.0 16.28999089631971 0.0 0.0 0.0 34.61538196595647" Properties=species:S:1:pos:R:3:initial_magmoms:R:1 pbc="T T T"
Si      -1.67721840      -0.96619248      -1.36273912       0.00000000
Si      -1.40006034       0.58293765       1.81879703       0.00000000
Si       1.96190244      -1.04055633       0.96618508       0.00000000
Si       1.54017063       1.49996691      -1.13469285       0.00000000
Si       1.92311595       3.12413874       0.55564642       0.00000000
Si      -3.00775302      -1.17719685       2.05234714       0.00000000
Si       3.64827582      -0.04108338      -1.15456210       0.00000000
Si      -0.94532499      -3.03940449      -2.20285491       0.00000000
Si      -0.06297714       1.68964767       3.49570553       0.00000000
Si       2.96982990      -2.34584145      -0.90366967       0.00000000
