10
Lattice="16.28999089631971 0.0 0.0 0.0 16.28999089631971 0.0 0.0 0.0 34.61538196595647" Properties=species:S:1:pos:R:3:initial_magmoms:R:1 pbc="T T T"
Si      -2.22070167       0.06770450       0.71363111       0.00000000
Si       1.36870209       1.37123030       1.34820065       0.00000000
Si       0.80550792      -2.12796663       0.65817724       0.00000000
Si       0.20140956       1.20759725      -2.05009714       0.00000000
Si       2.50092225       0.87834377      -2.31435112       0.00000000
Si      -0.26676504       2.95916321       1.97231634       0.00000000
Si      -2.50301877       2.37001907       1.05878128       0.00000000
Si       3.12552972       1.91090171      -0.25044243       0.00000000
Si      -0.19388358      -2.36591466       2.81596290       0.00000000
Si      -2.26064475      -1.04662761       2.74652440       0.00000000
