10
Lattice="16.28999089631971 0.0 0.0 0.0 16.28999089631971 0.0 0.0 0.0 34.61538196595647" Properties=species:S:1:pos:R:3:initial_magmoms:R:1 pbc="T T T"
Si       0.34632540       1.17524205       1.94296248       0.00000000
Si       1.29678174      -1.69194456      -1.01876588       0.00000000
Si      -2.07837594      -1.12601367      -0.04842695       0.00000000
Si      -0.30636603       1.91871765      -1.41656607       0.00000000
Si      -2.14759215      -1.15282701      -2.41826655       0.00000000
Si       0.05167188      -1.69714107      -3.03123608       0.00000000
Si      -1.69329663       2.57618205       1.73800468       0.00000000
Si       2.10018825       2.68535763       1.40978145       0.00000000
Si       0.75965157       3.71546785      -0.23445011       0.00000000
Si       0.92186739      -0.28615014       3.71653591       0.00000000
