10
Lattice="16.28999089631971 0.0 0.0 0.0 16.28999089631971 0.0 0.0 0.0 34.61538196595647" Properties=species:S:1:pos:R:3:initial_magmoms:R:1 pbc="T T T"
Si      -1.24437681       1.38430791       1.40531260       0.00000000
Si       1.48100535      -1.32866127       1.37003951       0.00000000
Si       0.79244334       1.90371456      -1.44589712       0.00000000
Si      -2.16103140      -0.68188311      -1.94840890       0.00000000
Si      -0.90476289       1.01957481      -3.21965952       0.00000000
Si      -2.64298734      -2.61766291      -0.06030003       0.00000000
Si      -2.74204683       2.56798818       0.05246656       0.00000000
Si      -2.59755453       0.04165353       2.75833171       0.00000000
Si       0.11717397      -2.67363209       2.75130479       0.00000000
Si       0.11528433       2.75848344       2.75438556       0.00000000
