10
Lattice="16.28999089631971 0.0 0.0 0.0 16.28999089631971 0.0 0.0 0.0 34.61538196595647" Properties=species:S:1:pos:R:3:initial_magmoms:R:1 pbc="T T T"
Si      -0.89231733       0.45984389      -2.17132028       0.00000000
Si       1.22841261       2.07983552      -0.02326155       0.00000000
Si      -2.08990926       0.70587176       1.01146203       0.00000000
Si       1.25209827      -1.54683065       1.85085089       0.00000000
Si      -2.81364138      -1.34576952       1.83361242       0.00000000
Si      -0.84084093      -1.97133176       3.04470147       0.00000000
Si      -0.52817067       3.69002057       0.01284231       0.00000000
Si      -1.92917583       2.75424152      -1.72890083       0.00000000
Si       0.87995322       1.30637003      -3.49591322       0.00000000
Si       2.69374698       2.05264751      -2.02687021       0.00000000
