10
Lattice="16.28999089631971 0.0 0.0 0.0 16.28999089631971 0.0 0.0 0.0 34.61538196595647" Properties=species:S:1:pos:R:3:initial_magmoms:R:1 pbc="T T T"
Si      -0.03994308      -1.11433211       2.03289329       0.00000000
Si       2.22070167      -0.06770450      -0.71363111       0.00000000
Si      -1.34215102      -0.72173822      -1.77698163       0.00000000
Si      -0.28231710       2.30231457       0.34515017       0.00000000
Si      -1.03837184       1.19780370      -3.16114768       0.00000000
Si       1.95393663       2.89145871       1.25868522       0.00000000
Si      -0.46669058       3.14121699      -1.94209709       0.00000000
Si       3.02620959      -2.19567113      -0.05545387       0.00000000
Si       2.02681809      -2.43361916       2.10233178       0.00000000
Si      -2.02456097      -2.39414849       2.21756645       0.00000000
