10
Lattice="16.28999089631971 0.0 0.0 0.0 16.28999089631971 0.0 0.0 0.0 34.61538196595647" Properties=species:S:1:pos:R:3:initial_magmoms:R:1 pbc="T T T"
Si      -1.78650801       0.54638289       1.54585459       0.00000000
Si      -0.37476774      -2.36578760      -0.50853486       0.00000000
Si       2.20152834       0.17583426       1.10665438       0.00000000
Si       0.20618253       1.13759586      -2.22559723       0.00000000
Si       3.43316637      -1.43939906      -0.15594238       0.00000000
Si       1.06194510      -0.76622947      -3.49144784       0.00000000
Si       1.95038541      -0.70675305       3.31286698       0.00000000
Si       2.25344457       2.44444482      -2.10780102       0.00000000
Si      -1.20818043       2.53008135       2.77213980       0.00000000
Si      -0.15842025      -2.72701835      -2.92500141       0.00000000
