10
Lattice="16.28999089631971 0.0 0.0 0.0 16.28999089631971 0.0 0.0 0.0 34.61538196595647" Properties=species:S:1:pos:R:3:initial_magmoms:R:1 pbc="T T T"
Si      -1.35637056       1.35650088       1.35765065       0.00000000
Si       1.35788553       1.35635427      -1.35799681       0.00000000
Si       1.35827649      -1.35744570       1.35820450       0.00000000
Si      -1.35896067      -1.35830907      -1.35733912       0.00000000
Si      -2.71326240       0.00109143      -2.71128592       0.00000000
Si      -2.71353933       2.71391400       0.00055385       0.00000000
Si       0.00232947       2.71391400       2.71391669       0.00000000
Si      -2.71347417       0.00016290       2.71495516       0.00000000
Si      -2.71379997      -2.71557069       0.00017308       0.00000000
Si       2.71497285       0.00029322       2.71460900       0.00000000
