10
Lattice="16.28999089631971 0.0 0.0 0.0 16.28999089631971 0.0 0.0 0.0 34.61538196595647" Properties=species:S:1:pos:R:3:initial_magmoms:R:1 pbc="T T T"
Si       1.35637056      -1.35650088      -1.35765065       0.00000000
Si      -1.35710361      -1.35633798       1.35730450       0.00000000
Si      -1.35716877       1.35741312      -1.35709681       0.00000000
Si       1.35870003       1.35741312       1.35626604       0.00000000
Si      -2.71397916      -0.00070047      -2.71353592       0.00000000
Si      -2.71138905      -0.00291591       2.71630516       0.00000000
Si      -0.00146610       2.71366965      -2.71453977       0.00000000
Si       2.71464705      -2.71394658       0.00055385       0.00000000
Si       2.71494027      -0.00247608       2.71384746       0.00000000
Si      -2.71466334      -2.71450044       0.00020769       0.00000000
