10
Lattice="16.28999089631971 0.0 0.0 0.0 16.28999089631971 0.0 0.0 0.0 34.61538196595647" Properties=species:S:1:pos:R:3:initial_magmoms:R:1 pbc="T T T"
Si      -1.35871632      -1.34281728      -1.38769682       0.00000000
Si       1.35658233       1.37479455      -1.38461605       0.00000000
Si      -1.25066475       1.53199305       1.31915833       0.00000000
Si       1.40936193      -1.27492056       1.66417003       0.00000000
Si       0.62742564       2.22853716       2.43588579       0.00000000
Si      -2.69663031      -2.68229511      -0.01180385       0.00000000
Si       2.71313208      -2.68183899       0.00522693       0.00000000
Si       2.36858229       0.68488047       2.93029757       0.00000000
Si      -0.00231318      -2.69654886      -2.74458594       0.00000000
Si       2.71513575       0.01857060      -2.74313209       0.00000000
