10
Lattice="16.28999089631971 0.0 0.0 0.0 16.28999089631971 0.0 0.0 0.0 34.61538196595647" Properties=species:S:1:pos:R:3:initial_magmoms:R:1 pbc="T T T"
Si      -1.63118286       1.79929566      -0.16383469       0.00000000
Si      -1.25626851      -1.70145792       1.27125061       0.00000000
Si       1.25061588      -0.41029623      -2.10620871       0.00000000
Si       1.69720623       0.88413975       1.77376239       0.00000000
Si      -0.11534949       2.56072284       1.88996630       0.00000000
Si       0.90476289      -1.01957481       3.21965952       0.00000000
Si      -3.02513445      -0.07877844       1.85891628       0.00000000
Si       3.13067736       1.98421974      -0.55550796       0.00000000
Si      -1.91925522      -3.16493523      -0.82353501       0.00000000
Si      -3.88788543       0.68419629      -0.22752703       0.00000000
