10
Lattice="16.28999089631971 0.0 0.0 0.0 16.28999089631971 0.0 0.0 0.0 34.61538196595647" Properties=species:S:1:pos:R:3:initial_magmoms:R:1 pbc="T T T"
Si      -1.82550531      -0.85085928       1.30757221       0.00000000
Si      -1.85007063       0.07281630      -1.64228449       0.00000000
Si       0.83052936       1.91637189       1.37844378       0.00000000
Si       2.00807644       1.94549841      -1.78673456       0.00000000
Si      -0.43888422      -2.10334851       2.69871672       0.00000000
Si       2.27567228       0.60338160       2.68930134       0.00000000
Si       0.84448012      -3.49133959       1.20579947       0.00000000
Si       3.50416633      -0.96505218       1.29673413       0.00000000
Si      -2.98289352      -2.45444688      -0.04997603       0.00000000
Si       2.74303237      -2.77661421      -0.00671951       0.00000000
