10
Lattice="16.28999089631971 0.0 0.0 0.0 16.28999089631971 0.0 0.0 0.0 34.61538196595647" Properties=species:S:1:pos:R:3:initial_magmoms:R:1 pbc="T T T"
Si      -1.35651717      -1.35681039       1.35758142       0.00000000
Si       1.35710361      -1.35746199      -1.35737373       0.00000000
Si       1.35861858       1.35710361       1.35692373       0.00000000
Si      -1.35803214       1.35765747      -1.35761604       0.00000000
Si       2.71324611       0.00009774       2.71301669       0.00000000
Si      -0.00115659       2.71454931      -2.71388208       0.00000000
Si       2.71399545      -2.71446786       0.00020769       0.00000000
Si       2.71549413      -0.00045612      -2.71412439       0.00000000
Si       2.71466334       2.71521720       0.00041538       0.00000000
Si      -2.71467963      -2.71534752       0.00031154       0.00000000
