10
Lattice="16.28999089631971 0.0 0.0 0.0 16.28999089631971 0.0 0.0 0.0 34.61538196595647" Properties=species:S:1:pos:R:3:initial_magmoms:R:1 pbc="T T T"
Si       1.46116413      -1.22487768       1.34657373       0.00000000
Si       1.35182565       1.33317360      -1.36121604       0.00000000
Si      -1.36334268      -1.38438936      -1.35508912       0.00000000
Si      -1.39748652       1.34869797       1.39133144       0.00000000
Si      -0.28103508      -2.02825161       2.68681283       0.00000000
Si      -2.21092767      -0.53631567       2.62391665       0.00000000
Si       2.70420516       2.69078220       0.01647693       0.00000000
Si      -0.00280188       2.69017947      -2.71730900       0.00000000
Si       2.71104696      -0.02370195      -2.71789746       0.00000000
Si      -2.71793763      -0.02373453      -2.71665131       0.00000000
