10
Lattice="16.28999089631971 0.0 0.0 0.0 16.28999089631971 0.0 0.0 0.0 34.61538196595647" Properties=species:S:1:pos:R:3:initial_magmoms:R:1 pbc="T T T"
Si      -1.35182565      -1.33317360       1.36121604       0.00000000
Si      -1.35462753       1.35700587      -1.35609296       0.00000000
Si       1.35922131      -1.35687555      -1.35668142       0.00000000
Si       1.35237951       1.35760860       1.37769297       0.00000000
Si       0.10933848      -2.55805128       2.70778977       0.00000000
Si      -2.71324611      -0.00009774      -2.71301669       0.00000000
Si       0.00074934      -2.71456560      -2.71280900       0.00000000
Si       0.00141723       2.71511946      -2.71260131       0.00000000
Si       2.71665072       0.00003258      -2.71263592       0.00000000
Si       2.71458189       2.71549413       0.00529616       0.00000000
