10
Lattice="16.28999089631971 0.0 0.0 0.0 16.28999089631971 0.0 0.0 0.0 34.61538196595647" Properties=species:S:1:pos:R:3:initial_magmoms:R:1 pbc="T T T"
Si      -1.16874234      -1.36202319      -1.47021994       0.00000000
Si       0.31571649       2.13369678      -0.85641964       0.00000000
Si      -0.94700286       0.14007771       2.14009719       0.00000000
Si       2.01854277      -1.09512783       0.49226562       0.00000000
Si       3.41684379       0.67886946      -0.05884618       0.00000000
Si       2.20322250       2.72319930       0.44155406       0.00000000
Si      -3.29610231      -0.37066266      -1.21866982       0.00000000
Si       1.75619232      -2.98411623      -0.88397350       0.00000000
Si      -0.38794635      -2.02877289       2.93137064       0.00000000
Si      -0.53188479      -3.48702111      -0.71408111       0.00000000
