10
Lattice="16.28999089631971 0.0 0.0 0.0 16.28999089631971 0.0 0.0 0.0 34.61538196595647" Properties=species:S:1:pos:R:3:initial_magmoms:R:1 pbc="T T T"
Si      -2.23793649      -0.40193946       0.74873113       0.00000000
Si      -0.02443500      -1.26765522      -2.05404330       0.00000000
Si       1.52917488      -1.23316929       1.47710840       0.00000000
Si       0.55211697       2.40639138      -0.20873087       0.00000000
Si      -0.11069055      -3.23235954       1.54422767       0.00000000
Si       2.72179836       0.91680120       2.17633951       0.00000000
Si      -3.48304635      -0.40713597      -1.26373907       0.00000000
Si      -2.27452383      -2.49536736       1.82000857       0.00000000
Si       2.76886017       2.53050489      -1.05770820       0.00000000
Si      -0.65627523       0.06230925      -3.84393647       0.00000000
