10
Lattice="16.28999089631971 0.0 0.0 0.0 16.28999089631971 0.0 0.0 0.0 34.61538196595647" Properties=species:S:1:pos:R:3:initial_magmoms:R:1 pbc="T T T"
Si      -1.35309627      -1.34980569      -1.35520681       0.00000000
Si       1.34983827       1.35182565      -1.36532489       0.00000000
Si       1.35622395      -1.35661491       1.35626604       0.00000000
Si      -1.35835794       1.35605633       1.35578142       0.00000000
Si       2.66132988      -0.10684611      -2.65251243       0.00000000
Si       2.71371852       0.00019548       2.71360515       0.00000000
Si      -0.00027693       2.71426979       2.71350131       0.00000000
Si      -0.00081450      -2.71482624       2.71343208       0.00000000
Si      -2.71546155      -0.00016290       2.71360515       0.00000000
Si      -2.71492398      -2.71427238      -0.00664616       0.00000000
