10
Lattice="16.28999089631971 0.0 0.0 0.0 16.28999089631971 0.0 0.0 0.0 34.61538196595647" Properties=species:S:1:pos:R:3:initial_magmoms:R:1 pbc="T T T"
Si       0.38204937      -0.91285902      -2.17450489       0.00000000
Si      -0.67844592      -2.30475807       0.25089243       0.00000000
Si       2.06889516      -0.67339602       1.21873905       0.00000000
Si      -2.10810519       1.54105029       0.01986924       0.00000000
Si      -1.68637338      -0.99947295       2.12074718       0.00000000
Si      -0.37929636       0.36473310       3.65237484       0.00000000
Si       3.50019972       1.15999461       0.50393101       0.00000000
Si      -3.64827582       0.04108338       1.15456210       0.00000000
Si       0.24764058       2.53965987       2.92129756       0.00000000
Si       2.49562800      -2.46363444      -1.84077781       0.00000000
