10
Lattice="16.28999089631971 0.0 0.0 0.0 16.28999089631971 0.0 0.0 0.0 34.61538196595647" Properties=species:S:1:pos:R:3:initial_magmoms:R:1 pbc="T T T"
Si      -0.35311833       0.01599678       2.37139730       0.00000000
Si       1.43130456       1.83339063      -0.71480804       0.00000000
Si      -2.06889516       0.67339602      -1.21873905       0.00000000
Si       1.12492224      -2.09196180      -0.77635422       0.00000000
Si      -2.74734108      -1.63136205      -0.96784662       0.00000000
Si      -0.96339060      -3.17568663      -0.46768869       0.00000000
Si       0.42673284      -1.79023842      -3.05951686       0.00000000
Si      -2.44819152       1.03812912       2.43363579       0.00000000
Si       0.27168462       3.63755700       0.50870794       0.00000000
Si       2.98271529      -2.03820480       0.85382349       0.00000000
