10
Lattice="16.28999089631971 0.0 0.0 0.0 16.28999089631971 0.0 0.0 0.0 34.61538196595647" Properties=species:S:1:pos:R:3:initial_magmoms:R:1 pbc="T T T"
Si       2.21674320       0.12411351      -0.84897733       0.00000000
Si      -0.07410321       1.15864254       2.13462795       0.00000000
Si      -1.04492205       1.48625073      -1.63363925       0.00000000
Si      -0.55211697      -2.40639138       0.20873087       0.00000000
Si       2.16968139      -1.48959018       2.38507038       0.00000000
Si      -3.28388481       0.81663399      -1.53958920       0.00000000
Si       3.74217138      -0.57616101       0.82959271       0.00000000
Si       2.76301206       2.41263927      -1.28104677       0.00000000
Si       2.36405367      -1.06204284      -2.99745145       0.00000000
Si       1.28023110       3.14528527       2.18776259       0.00000000
