10
Lattice="16.28999089631971 0.0 0.0 0.0 16.28999089631971 0.0 0.0 0.0 34.61538196595647" Properties=species:S:1:pos:R:3:initial_magmoms:R:1 pbc="T T T"
Si       1.35603987       1.35575154      -1.35740835       0.00000000
Si      -1.35687262       1.35725022       1.35671604       0.00000000
Si       1.35805983      -1.35822762       1.35761604       0.00000000
Si      -1.35858602      -1.35839052      -1.35841219       0.00000000
Si      -2.71418671       0.00107514      -2.71460900       0.00000000
Si      -2.71342108       0.00092853       2.71561285       0.00000000
Si      -2.71485460      -2.71495656      -0.00006923       0.00000000
Si      -2.71487089       2.71502172      -0.00027692       0.00000000
Si      -0.00042680      -2.71573848       2.71426285       0.00000000
Si       2.71496796       2.71513575       0.00010385       0.00000000
