10
Lattice="16.28999089631971 0.0 0.0 0.0 16.28999089631971 0.0 0.0 0.0 34.61538196595647" Properties=species:S:1:pos:R:3:initial_magmoms:R:1 pbc="T T T"
Si       1.37098336       1.36443411       1.34245449       0.00000000
Si      -1.28917431       1.43788572      -1.41345068       0.00000000
Si       1.42445691      -1.30042581      -1.41891992       0.00000000
Si      -1.58135175      -0.97327863       1.52861612       0.00000000
Si       1.77117002       0.03772764       3.28794389       0.00000000
Si      -2.61956232      -2.72604095       0.12001160       0.00000000
Si      -3.43668501       0.85701690       1.46800455       0.00000000
Si       2.65941485      -2.77320050       0.06923080       0.00000000
Si      -2.64797208       0.06760350      -2.79917443       0.00000000
Si      -2.59294446       2.84480415       0.24549243       0.00000000
