10
Lattice="16.28999089631971 0.0 0.0 0.0 16.28999089631971 0.0 0.0 0.0 34.61538196595647" Properties=species:S:1:pos:R:3:initial_magmoms:R:1 pbc="T T T"
Si       1.58135175       0.97327863      -1.52861612       0.00000000
Si      -1.03821057      -1.75276232      -1.40860453       0.00000000
Si       1.29774285      -0.42736000       2.11507025       0.00000000
Si      -1.85533326       1.83029553      -0.06061157       0.00000000
Si       2.95233511       2.33771274      -0.18616163       0.00000000
Si       0.29217744       2.41116435      -2.94206680       0.00000000
Si      -2.42225784      -0.33875544      -2.94822835       0.00000000
Si       3.35252177       1.01100627       1.75932777       0.00000000
Si      -1.79413173      -3.60086282       0.08608850       0.00000000
Si      -3.66912702       1.08401805      -1.52965458       0.00000000
