10
Lattice="16.28999089631971 0.0 0.0 0.0 16.28999089631971 0.0 0.0 0.0 34.61538196595647" Properties=species:S:1:pos:R:3:initial_magmoms:R:1 pbc="T T T"
Si       0.14066415      -0.01174509      -2.32850882       0.00000000
Si       2.05860870      -0.18972963       1.11527361       0.00000000
Si      -0.89389746      -2.16687136       0.32638862       0.00000000
Si      -1.79716167       1.53802035       0.70909650       0.00000000
Si      -2.98866114      -1.67265394      -0.67455033       0.00000000
Si      -2.00145456      -0.98862381      -2.75362056       0.00000000
Si      -0.61743987      -2.34582353       2.66095513       0.00000000
Si       1.75482952      -2.10927155       2.49943967       0.00000000
Si      -1.72071270       3.37980033      -0.72363496       0.00000000
Si      -3.84442371       0.23117139       0.59130029       0.00000000
