10
Lattice="16.28999089631971 0.0 0.0 0.0 16.28999089631971 0.0 0.0 0.0 34.61538196595647" Properties=species:S:1:pos:R:3:initial_magmoms:R:1 pbc="T T T"
Si       1.35626859       1.35656604      -1.35834296       0.00000000
Si      -1.35713619       1.35685926       1.35765065       0.00000000
Si       1.35751194      -1.35755973       1.35706219       0.00000000
Si      -1.35656604      -1.35769005      -1.35820450       0.00000000
Si       2.71442781      -0.00078192       2.71433208       0.00000000
Si       2.71485460       2.71495656       0.00006923       0.00000000
Si       0.00099369      -2.71507059       2.71478208       0.00000000
Si      -2.71443528      -2.71571567       0.00006923       0.00000000
Si       2.71486926      -2.71532471      -0.00017308       0.00000000
Si      -2.71601541       0.00076563       2.71422823       0.00000000
