10
Lattice="16.28999089631971 0.0 0.0 0.0 16.28999089631971 0.0 0.0 0.0 34.61538196595647" Properties=species:S:1:pos:R:3:initial_magmoms:R:1 pbc="T T T"
Si      -1.74115665       1.54365669      -0.49441178       0.00000000
Si       1.69886781       0.79376283      -1.52584689       0.00000000
Si       0.24384501      -0.30755520       2.38593577       0.00000000
Si      -0.95922036      -1.95980103      -1.26612753       0.00000000
Si       0.34456608       2.06316108      -2.95307450       0.00000000
Si       2.79215554       2.34685143      -0.13555391       0.00000000
Si       1.14947127      -2.40007086       2.50760890       0.00000000
Si      -2.36858229      -0.68488047      -2.93029757       0.00000000
Si      -0.96855453       3.49765848      -1.50912765       0.00000000
Si       3.81251879      -0.74300319       0.67316571       0.00000000
