10
Lattice="16.28999089631971 0.0 0.0 0.0 16.28999089631971 0.0 0.0 0.0 34.61538196595647" Properties=species:S:1:pos:R:3:initial_magmoms:R:1 pbc="T T T"
Si      -0.80058834       1.74381192      -1.27190831       0.00000000
Si       0.31069917       0.68339808       2.17658182       0.00000000
Si       2.12918445      -0.67812012      -0.61096183       0.00000000
Si      -1.14851016      -1.89428265      -0.75503113       0.00000000
Si      -0.52359318      -1.45730340      -2.98374375       0.00000000
Si      -3.08866545       1.24090704      -1.10201592       0.00000000
Si       2.17207602      -2.70814734       0.57170797       0.00000000
Si       1.77790689      -1.73538999      -2.70103976       0.00000000
Si      -0.53823789       3.63280032       0.10433082       0.00000000
Si       3.51747431       1.02613968       0.28609629       0.00000000
