10
Lattice="16.28999089631971 0.0 0.0 0.0 16.28999089631971 0.0 0.0 0.0 34.61538196595647" Properties=species:S:1:pos:R:3:initial_magmoms:R:1 pbc="T T T"
Si      -1.35237951      -1.35760860      -1.37769297       0.00000000
Si       1.36220238       1.35788553      -1.37239682       0.00000000
Si       1.40765148      -1.26511398       1.43210838       0.00000000
Si      -1.23758388       1.35643572       1.54689305       0.00000000
Si      -0.71335539      -1.44764343       3.20711693       0.00000000
Si       0.63444663       2.14847181       3.04432070       0.00000000
Si      -2.70420516      -2.69078220      -0.01647693       0.00000000
Si       2.72077209      -2.69961138      -0.01183847       0.00000000
Si      -2.69773803       2.72394864       0.02706924       0.00000000
Si       2.38891221       0.31954464       2.99623991       0.00000000
