10
Lattice="16.28999089631971 0.0 0.0 0.0 16.28999089631971 0.0 0.0 0.0 34.61538196595647" Properties=species:S:1:pos:R:3:initial_magmoms:R:1 pbc="T T T"
Si      -1.41184453      -1.43492094       1.28800447       0.00000000
Si       1.69481160       0.93014271       1.42317761       0.00000000
Si      -1.35347583       1.33879365      -1.47582763       0.00000000
Si       1.34384355      -1.38038202      -1.49195841       0.00000000
Si      -0.60403320       1.26224694       2.13033564       0.00000000
Si       3.08941479      -1.21204116       1.65960080       0.00000000
Si       2.71503801       2.58445737       0.00488077       0.00000000
Si      -1.01041983      -0.45527292       3.66691331       0.00000000
Si       2.56352472      -2.86132221      -0.10232313       0.00000000
Si      -2.71768418       2.79901296      -0.06867696       0.00000000
