10
Lattice="16.28999089631971 0.0 0.0 0.0 16.28999089631971 0.0 0.0 0.0 34.61538196595647" Properties=species:S:1:pos:R:3:initial_magmoms:R:1 pbc="T T T"
Si      -1.41380910      -1.13438673       1.38496567       0.00000000
Si       0.66175749      -1.82454516      -1.32176283       0.00000000
Si       1.28450464       1.65215365       1.18061711       0.00000000
Si      -1.80498087       0.64590080      -1.60259758       0.00000000
Si      -0.23061753      -0.43370496      -3.14000602       0.00000000
Si       0.02036250      -2.41339608       2.66946013       0.00000000
Si      -2.68291413      -2.54440026      -0.05881991       0.00000000
Si      -2.54286900       2.68904636      -0.07515838       0.00000000
Si       2.69864117       0.31588635       2.64975359       0.00000000
Si      -2.72530071       0.32428503       2.67215321       0.00000000
