10
Lattice="16.28999089631971 0.0 0.0 0.0 16.28999089631971 0.0 0.0 0.0 34.61538196595647" Properties=species:S:1:pos:R:3:initial_magmoms:R:1 pbc="T T T"
Si      -1.35648459      -1.35837423      -1.35695835       0.00000000
Si      -1.35731538       1.35729909       1.35758142       0.00000000
Si       1.35703845       1.35821133      -1.35716604       0.00000000
Si       1.35791811      -1.35778779       1.35754681       0.00000000
Si      -2.71336014      -0.00081450       2.71408977       0.00000000
Si       0.00048870      -2.71469592       2.71350131       0.00000000
Si       0.00081450       2.71482624      -2.71343208       0.00000000
Si      -2.71464705       2.71466334       0.00017308       0.00000000
Si      -0.00024435       2.71536381       2.71415900       0.00000000
Si       2.71453302       2.71502172       0.00017308       0.00000000
