10
Lattice="16.28999089631971 0.0 0.0 0.0 16.28999089631971 0.0 0.0 0.0 34.61538196595647" Properties=species:S:1:pos:R:3:initial_magmoms:R:1 pbc="T T T"
Si      -2.25666089       0.06045219       0.29786553       0.00000000
Si       0.40638663       1.71751986      -1.53657766       0.00000000
Si      -0.00123804      -2.30635449      -0.43341944       0.00000000
Si       1.08918198      -0.25718652       2.12857026       0.00000000
Si      -0.40142470      -0.97964802      -2.37890884       0.00000000
Si       1.49527539       3.37220919      -0.25106551       0.00000000
Si       2.70523143       1.38541563      -2.24373570       0.00000000
Si      -3.16228715       2.15296785       0.17619239       0.00000000
Si       1.01041983       0.45527292      -3.66691331       0.00000000
Si       3.41611074      -0.58228605       1.83672781       0.00000000
