10
Lattice="16.28999089631971 0.0 0.0 0.0 16.28999089631971 0.0 0.0 0.0 34.61538196595647" Properties=species:S:1:pos:R:3:initial_magmoms:R:1 pbc="T T T"
Si      -1.49027436      -1.53026631       0.97864663       0.00000000
Si       0.53496360      -0.44395137      -2.26876263       0.00000000
Si       1.86385293      -0.23113881       1.45391609       0.00000000
Si      -0.86656284       2.11900224      -0.71754265       0.00000000
Si      -0.27665307      -3.57459615       0.47824638       0.00000000
Si      -1.59335748      -0.30237498      -3.40553241       0.00000000
Si       3.41039199       1.37560905       0.83990810       0.00000000
Si      -2.75297742       1.50179139      -2.18201644       0.00000000
Si       1.01568150       3.26351321      -1.71346236       0.00000000
Si       1.22637636       0.38535624       3.66168638       0.00000000
