10
Lattice="16.28999089631971 0.0 0.0 0.0 16.28999089631971 0.0 0.0 0.0 34.61538196595647" Properties=species:S:1:pos:R:3:initial_magmoms:R:1 pbc="T T T"
Si       0.78367932      -2.08441953      -0.58794259       0.00000000
Si      -0.53496360       0.44395137       2.26876263       0.00000000
Si      -2.12832108       0.14157639      -1.13676978       0.00000000
Si       2.16787061       0.99282663      -1.05279282       0.00000000
Si      -1.40152644       2.56295361       1.55121998       0.00000000
Si       0.48071790       3.70746458       0.55530027       0.00000000
Si      -0.57691035      -3.73001904       0.43186175       0.00000000
Si      -3.28794102       1.94574276       0.08674620       0.00000000
Si       1.30678380       3.28756539      -1.61529309       0.00000000
Si       1.32888933       0.21281256       3.72267872       0.00000000
