10
Lattice="16.28999089631971 0.0 0.0 0.0 16.28999089631971 0.0 0.0 0.0 34.61538196595647" Properties=species:S:1:pos:R:3:initial_magmoms:R:1 pbc="T T T"
Si      -1.34807895      -1.59366699       1.10810823       0.00000000
Si       2.01720114       0.30781584       1.19371211       0.00000000
Si       0.63747657      -0.61649505      -2.20777030       0.00000000
Si      -1.22557815       2.05996728       0.48994639       0.00000000
Si      -0.94912056       1.88101512       2.82451290       0.00000000
Si       3.28643324       1.16046702      -0.69192726       0.00000000
Si      -3.27091797      -1.42594515      -0.35203863       0.00000000
Si      -1.49538942      -0.40751064       3.25658234       0.00000000
Si       1.42314883       2.11756709       2.66299744       0.00000000
Si       2.18401563       0.99025281      -2.82177828       0.00000000
