10
Lattice="16.28999089631971 0.0 0.0 0.0 16.28999089631971 0.0 0.0 0.0 34.61538196595647" Properties=species:S:1:pos:R:3:initial_magmoms:R:1 pbc="T T T"
Si      -1.47989763      -1.20871800       1.33354245       0.00000000
Si      -0.97720452       1.56540384      -1.48527764       0.00000000
Si       1.26910503       1.41001353       1.44378558       0.00000000
Si       1.63794321      -0.90885168      -1.51639689       0.00000000
Si       0.16910649      -0.35567586      -3.24810157       0.00000000
Si       3.34467162       0.71985510      -1.26294292       0.00000000
Si       0.87793326       3.19030106      -1.54377767       0.00000000
Si       2.68291413       2.54440026       0.05881991       0.00000000
Si      -0.02958264      -2.55510279       2.71238119       0.00000000
Si      -2.66789475       2.64587067      -0.16096162       0.00000000
