10
Lattice="16.28999089631971 0.0 0.0 0.0 16.28999089631971 0.0 0.0 0.0 34.61538196595647" Properties=species:S:1:pos:R:3:initial_magmoms:R:1 pbc="T T T"
Si      -1.35658561      -1.35503574       1.35678527       0.00000000
Si      -1.35410953       1.35801067      -1.35962373       0.00000000
Si       1.35872348       1.35942953       1.35643912       0.00000000
Si       1.36085258      -1.35588282      -1.35858527       0.00000000
Si      -2.71408018      -2.71184613      -0.00055385       0.00000000
Si       0.00139316      -2.71308417       2.71343208       0.00000000
Si       2.71510707      -2.71238370      -0.00124615       0.00000000
Si      -2.71373809       0.00217848       2.71384746       0.00000000
Si      -2.71271182       2.71706419      -0.00159231       0.00000000
Si       2.71657317       0.00199613       2.71363977       0.00000000
