10
Lattice="16.28999089631971 0.0 0.0 0.0 16.28999089631971 0.0 0.0 0.0 34.61538196595647" Properties=species:S:1:pos:R:3:initial_magmoms:R:1 pbc="T T T"
Si       1.34959411       1.34807895       1.36325835       0.00000000
Si      -1.35846756      -1.34206794       1.36557758       0.00000000
Si       1.35594395      -1.35604476      -1.35533142       0.00000000
Si      -1.35656163       1.35666378      -1.35647373       0.00000000
Si      -0.00416583      -2.61146619       2.79280519       0.00000000
Si      -2.71496844      -0.00003258      -2.71291285       0.00000000
Si       2.71431655       0.00017919      -2.71360515       0.00000000
Si       2.71337173      -2.71495656       0.00612693       0.00000000
Si      -0.00037476       2.71472850      -2.71363977       0.00000000
Si       0.00006828      -2.71521720      -2.71367439       0.00000000
