10
Lattice="16.28999089631971 0.0 0.0 0.0 16.28999089631971 0.0 0.0 0.0 34.61538196595647" Properties=species:S:1:pos:R:3:initial_magmoms:R:1 pbc="T T T"
Si       1.35691587       1.35677781       1.35726989       0.00000000
Si      -1.35651825      -1.35751086       1.35771989       0.00000000
Si      -1.35751194       1.35755973      -1.35706219       0.00000000
Si       1.35735732      -1.35776498      -1.35723527       0.00000000
Si      -2.71464813       2.71441899       0.00058846       0.00000000
Si      -2.71407798      -0.00013032      -2.71526669       0.00000000
Si      -0.00124335       2.71412577      -2.71540516       0.00000000
Si       2.71540250       2.71428867       0.00062308       0.00000000
Si       2.71541879      -0.00074934      -2.71467823       0.00000000
Si      -2.71510425      -2.71501603       0.00017308       0.00000000
