10
Lattice="16.28999089631971 0.0 0.0 0.0 16.28999089631971 0.0 0.0 0.0 34.61538196595647" Properties=species:S:1:pos:R:3:initial_magmoms:R:1 pbc="T T T"
Si      -1.22548041      -0.14550228      -2.01084328       0.00000000
Si       2.34460341      -0.34661862      -0.22198857       0.00000000
Si      -0.80765820      -1.88213031       1.30081217       0.00000000
Si      -0.82132551       2.25751707       0.84305810       0.00000000
Si      -2.30488024      -0.58007061       2.63897435       0.00000000
Si      -1.58333913       2.14858584      -2.45983965       0.00000000
Si      -1.30121262       1.54437345       3.05017070       0.00000000
Si       3.26534679       0.81634077       1.53851613       0.00000000
Si      -0.19632708      -1.64558322      -3.46531321       0.00000000
Si      -2.86741630       2.51353071      -0.47160023       0.00000000
