10
Lattice="16.28999089631971 0.0 0.0 0.0 16.28999089631971 0.0 0.0 0.0 34.61538196595647" Properties=species:S:1:pos:R:3:initial_magmoms:R:1 pbc="T T T"
Si      -2.10751779       0.28256634      -0.98570817       0.00000000
Si      -0.79869218      -0.86118714       2.03434714       0.00000000
Si       1.00366763       2.12444406       0.41119635       0.00000000
Si       1.49722205      -1.30205970      -1.33816218       0.00000000
Si       2.42352032       1.18214901       2.09160101       0.00000000
Si      -2.46001710      -2.10738843      -1.08024283       0.00000000
Si      -2.06149854       1.15970139       2.58030124       0.00000000
Si      -1.78515498      -2.82422988       1.14542363       0.00000000
Si       2.30488024       0.58007061      -2.63897435       0.00000000
Si      -3.15310773       1.77758109       0.56357335       0.00000000
