10
Lattice="16.28999089631971 0.0 0.0 0.0 16.28999089631971 0.0 0.0 0.0 34.61538196595647" Properties=species:S:1:pos:R:3:initial_magmoms:R:1 pbc="T T T"
Si       1.32742323       1.72950930       0.83734656       0.00000000
Si       1.32585939      -1.86893541      -0.51736179       0.00000000
Si      -0.86672574      -0.70024194       2.09291639       0.00000000
Si      -1.41985269       0.94229505      -1.68040466       0.00000000
Si      -2.42352032      -1.18214901      -2.09160101       0.00000000
Si       0.17936919       3.56755887      -0.01623462       0.00000000
Si       3.32350209      -0.78695361      -1.04908897       0.00000000
Si      -2.08968120       2.88688122      -0.47011177       0.00000000
Si       1.03428468      -0.55662930       3.47081706       0.00000000
Si       3.52668726       1.18519524       0.22437703       0.00000000
