10
Lattice="16.28999089631971 0.0 0.0 0.0 16.28999089631971 0.0 0.0 0.0 34.61538196595647" Properties=species:S:1:pos:R:3:initial_magmoms:R:1 pbc="T T T"
Si      -0.47788507       0.46833750      -2.24498185       0.00000000
Si      -2.00279590      -0.63179136       1.25671357       0.00000000
Si       0.82783174       1.95330132       1.22343432       0.00000000
Si       1.69974910      -1.81744272       0.03098078       0.00000000
Si      -1.70920123       2.37294801      -1.50199688       0.00000000
Si      -0.69797453      -1.98430119       2.75319275       0.00000000
Si       2.06241337       0.70664391       2.75436275       0.00000000
Si       3.36421243      -0.71237799       1.31029821       0.00000000
Si       0.60632357      -3.40392582       1.42648134       0.00000000
Si      -1.42124290      -1.58615730      -3.17672461       0.00000000
