10
Lattice="16.28999089631971 0.0 0.0 0.0 16.28999089631971 0.0 0.0 0.0 34.61538196595647" Properties=species:S:1:pos:R:3:initial_magmoms:R:1 pbc="T T T"
Si       0.47788507      -0.46833750       2.24498185       0.00000000
Si      -1.23131616       1.90461051       0.74298497       0.00000000
Si      -0.94335783      -2.05449480      -0.93174276       0.00000000
Si       1.75679831       0.98321553      -1.47818148       0.00000000
Si       0.47541225       3.53331729       0.99643894       0.00000000
Si      -2.21984223      -1.12283712      -2.76822826       0.00000000
Si      -2.70015288       2.45778633      -0.98871971       0.00000000
Si       0.51609489       1.84461444      -3.30334775       0.00000000
Si       2.17763417      -2.28578022       2.27596264       0.00000000
Si      -1.52491083      -1.10012886       3.50169542       0.00000000
