10
Lattice="16.28999089631971 0.0 0.0 0.0 16.28999089631971 0.0 0.0 0.0 34.25627252547053" Properties=species:S:1:pos:R:3:initial_magmoms:R:1 pbc="T T T"
Si      -1.29530554       1.32150670       1.38316629       0.00000000
Si       1.33667921       1.35296269      -1.34777954       0.00000000
Si       1.42270670      -1.30134489       1.34610098       0.00000000
Si      -1.37992983      -1.36319059      -1.34291515       0.00000000
Si      -2.06461482      -0.65874805       2.51173982       0.00000000
Si      -0.28187727      -2.29235553       2.53273892       0.00000000
Si       2.69298461       2.69467225       0.05450176       0.00000000
Si       2.69200721      -0.00247771      -2.70196501       0.00000000
Si      -0.02176507       2.70908890      -2.70285567       0.00000000
Si      -0.02266591      -2.71905579      -2.70309546       0.00000000
