10
Lattice="16.28999089631971 0.0 0.0 0.0 16.28999089631971 0.0 0.0 0.0 34.25627252547053" Properties=species:S:1:pos:R:3:initial_magmoms:R:1 pbc="T T T"
Si      -1.29341460      -1.81679112       0.75124048       0.00000000
Si       1.17112068       0.86345145       1.85395051       0.00000000
Si      -1.62462874       1.53435510      -0.78570231       0.00000000
Si       1.79002665      -0.74660328      -1.43174171       0.00000000
Si       1.37119446      -1.17237501       3.15843009       0.00000000
Si       0.28012284      -3.05448903       2.04410718       0.00000000
Si      -0.21270993       2.64928247       2.70316398       0.00000000
Si      -2.98075139       0.42117795      -2.33603930       0.00000000
Si       3.41511705       1.38339567       1.03337529       0.00000000
Si       2.42273025       1.19048949      -2.75078022       0.00000000
