10
Lattice="16.28999089631971 0.0 0.0 0.0 16.28999089631971 0.0 0.0 0.0 34.25627252547053" Properties=species:S:1:pos:R:3:initial_magmoms:R:1 pbc="T T T"
Si      -2.29056689      -0.38755539      -0.25633983       0.00000000
Si       0.33932233       0.41619321       2.29225976       0.00000000
Si       0.85082018       2.01893603      -0.89645290       0.00000000
Si       1.54786928      -1.72111995      -0.55460936       0.00000000
Si       3.20125541      -0.31504860       0.42947113       0.00000000
Si       3.12713591       1.98328374      -0.04494425       0.00000000
Si       2.59073879      -0.07503174       2.65308128       0.00000000
Si       0.71609048       1.64666555      -3.25105910       0.00000000
Si      -2.67232304      -0.27341136      -2.59744906       0.00000000
Si      -3.44671706       1.28275605       0.90008406       0.00000000
