10
Lattice="16.28999089631971 0.0 0.0 0.0 16.28999089631971 0.0 0.0 0.0 34.25627252547053" Properties=species:S:1:pos:R:3:initial_magmoms:R:1 pbc="T T T"
Si      -1.83513366      -0.45835173       1.29584700       0.00000000
Si      -0.45258507      -1.88825535      -1.29961519       0.00000000
Si       1.91392839      -0.77515965       1.12422298       0.00000000
Si      -0.58313313       2.10706263      -0.87182262       0.00000000
Si      -1.09734327      -2.97036747       0.74805464       0.00000000
Si       2.91504663      -0.19373697      -1.70777891       0.00000000
Si      -0.85717980       0.11339469       3.35686929       0.00000000
Si       2.64676662       1.58148207       1.66437619       0.00000000
Si       1.69675011      -2.11269897      -2.36142321       0.00000000
Si      -3.50380144       0.82231920       0.15648274       0.00000000
