10
Lattice="16.28999089631971 0.0 0.0 0.0 16.28999089631971 0.0 0.0 0.0 34.25627252547053" Properties=species:S:1:pos:R:3:initial_magmoms:R:1 pbc="T T T"
Si       1.40680440      -1.15393473      -1.44438228       0.00000000
Si       1.34369694       1.18985418       1.53235244       0.00000000
Si      -0.62957592      -1.87277822       1.41608659       0.00000000
Si       0.01479132       1.95893766      -1.67883234       0.00000000
Si      -2.34950670       0.76626531      -1.26090558       0.00000000
Si      -2.17360728      -0.61809147       2.66979835       0.00000000
Si      -1.96517673       1.82749365       2.36515715       0.00000000
Si       1.25687124      -0.09503586       3.49832102       0.00000000
Si       3.28046391       0.39270303      -1.75549792       0.00000000
Si       0.17581797       3.08237751       2.19723280       0.00000000
