10
Lattice="16.28999089631971 0.0 0.0 0.0 16.28999089631971 0.0 0.0 0.0 34.25627252547053" Properties=species:S:1:pos:R:3:initial_magmoms:R:1 pbc="T T T"
Si      -0.88956432       2.20661082       0.43474660       0.00000000
Si       1.58285043      -0.73011780      -1.69904355       0.00000000
Si      -0.01479132      -1.95893766       1.67883234       0.00000000
Si      -2.36429802      -1.19267235       0.41792676       0.00000000
Si      -1.57957614       2.30685948      -1.81863227       0.00000000
Si       1.39201308      -3.11287239       0.23445006       0.00000000
Si       1.32890562      -0.76908348       3.21118478       0.00000000
Si       3.26567259      -1.56623463      -0.07666558       0.00000000
Si      -3.12463377       0.36196380       2.08860610       0.00000000
Si       0.31438071      -2.32342641      -2.98019461       0.00000000
