10
Lattice="16.28999089631971 0.0 0.0 0.0 16.28999089631971 0.0 0.0 0.0 34.25627252547053" Properties=species:S:1:pos:R:3:initial_magmoms:R:1 pbc="T T T"
Si      -0.73244727       1.86958701      -1.27625240       0.00000000
Si      -1.46922768      -1.48919922      -1.15313529       0.00000000
Si       2.41171821      -0.16853634       0.00517270       0.00000000
Si      -0.17992305      -0.13773195       2.48553375       0.00000000
Si       1.51415550       1.55528775       2.87667209       0.00000000
Si       2.92182327       2.01789117       0.88076352       0.00000000
Si      -3.05328357       2.01087018      -0.98815699       0.00000000
Si      -3.47433120      -0.30796245      -1.53077665       0.00000000
Si      -0.46086039      -2.27224323      -3.10557263       0.00000000
Si      -1.14230367       1.48162437      -3.62232879       0.00000000
