10
Lattice="16.28999089631971 0.0 0.0 0.0 16.28999089631971 0.0 0.0 0.0 34.25627252547053" Properties=species:S:1:pos:R:3:initial_magmoms:R:1 pbc="T T T"
Si       0.96347205       1.66216644      -1.43177597       0.00000000
Si      -1.74431691      -1.08129762      -1.35308926       0.00000000
Si       2.68675857       0.83101806       1.38624935       0.00000000
Si      -2.75573043      -0.78714909       1.91434435       0.00000000
Si       1.59689241      -2.35768428       2.33648463       0.00000000
Si       2.55990834      -2.64847707      -0.02850123       0.00000000
Si       2.29012965       0.31170915      -2.91425124       0.00000000
Si      -0.41482485      -2.39111136      -2.91003772       0.00000000
Si       1.99262538       3.36048039      -0.13568917       0.00000000
Si      -2.71982727      -2.94133869      -0.14946020       0.00000000
