10
Lattice="16.28999089631971 0.0 0.0 0.0 16.28999089631971 0.0 0.0 0.0 34.25627252547053" Properties=species:S:1:pos:R:3:initial_magmoms:R:1 pbc="T T T"
Si      -0.41063832       1.89706824       1.41146199       0.00000000
Si       1.89503199       0.80795142      -1.28649503       0.00000000
Si       0.42971391      -2.13350130       1.11398035       0.00000000
Si      -0.54393939       1.37331216      -1.95925435       0.00000000
Si      -1.63380555      -1.81539018      -1.00901907       0.00000000
Si      -1.24411617       3.47030757      -0.18172963       0.00000000
Si       1.57983678       1.96222824       2.81535333       0.00000000
Si       3.79157895       0.09971109       0.04607471       0.00000000
Si      -1.76694372      -3.08542374       1.44270372       0.00000000
Si       1.87229115      -3.40218279      -0.21053917       0.00000000
