10
Lattice="16.28999089631971 0.0 0.0 0.0 16.28999089631971 0.0 0.0 0.0 34.25627252547053" Properties=species:S:1:pos:R:3:initial_magmoms:R:1 pbc="T T T"
Si       1.50632001       0.95928552       1.55943687       0.00000000
Si       1.02270249      -1.84806792      -1.09287847       0.00000000
Si      -1.15285959      -1.56007701       1.40789732       0.00000000
Si      -0.50674932       1.48162437      -1.95322524       0.00000000
Si       1.50392538       2.90939400      -1.68688257       0.00000000
Si       3.10783878       2.02702986       0.28405150       0.00000000
Si       0.18096561       2.31616107       2.91704797       0.00000000
Si      -2.63912661      -2.68643277      -0.06443608       0.00000000
Si      -2.53407240      -0.38462319       2.89805971       0.00000000
Si      -0.67137606      -3.54108762      -1.48401681       0.00000000
