10
Lattice="16.28999089631971 0.0 0.0 0.0 16.28999089631971 0.0 0.0 0.0 34.25627252547053" Properties=species:S:1:pos:R:3:initial_magmoms:R:1 pbc="T T T"
Si       1.35521397      -1.35878148       1.36192739       0.00000000
Si      -1.36023129       1.35617508       1.36206441       0.00000000
Si       1.36443411       1.36410831      -1.35324684       0.00000000
Si      -1.36761066      -1.38963474      -1.37116974       0.00000000
Si       2.70962973      -0.04732245      -2.67815003       0.00000000
Si       2.71153566       2.71336014       0.00712531       0.00000000
Si       2.71114470      -2.71614573       0.00479588       0.00000000
Si      -2.71440433      -2.71502172       0.00647444       0.00000000
Si      -2.71657090       2.71454931       0.00205538       0.00000000
Si       2.71282257      -0.00089595       2.71933295       0.00000000
