10
Lattice="16.28999089631971 0.0 0.0 0.0 16.28999089631971 0.0 0.0 0.0 34.25627252547053" Properties=species:S:1:pos:R:3:initial_magmoms:R:1 pbc="T T T"
Si      -1.34710155      -1.34925183      -1.36037215       0.00000000
Si      -1.35397593       1.35845057       1.35377439       0.00000000
Si       1.35777150      -1.35534429       1.35466505       0.00000000
Si       1.38878766       1.33480260      -1.34994796       0.00000000
Si       0.01365102       2.61115409      -2.71972689       0.00000000
Si      -2.71153566      -2.71336014      -0.00712531       0.00000000
Si      -2.71373481       0.00079821       2.71203636       0.00000000
Si       0.00128691      -2.71425609       2.71220764       0.00000000
Si       0.00122175       2.71594440       2.71203636       0.00000000
Si       2.71596654       0.00087966       2.71234466       0.00000000
