10
Lattice="16.28999089631971 0.0 0.0 0.0 16.28999089631971 0.0 0.0 0.0 34.25627252547053" Properties=species:S:1:pos:R:3:initial_magmoms:R:1 pbc="T T T"
Si       1.35154872      -1.35643572       1.35843325       0.00000000
Si      -1.35790182      -1.35669636      -1.35726853       0.00000000
Si       1.35648459       1.35847197      -1.35764535       0.00000000
Si      -1.35757602       1.36045935       1.35963222       0.00000000
Si       2.71441899      -2.71384884       0.00044533       0.00000000
Si       2.71397916       2.71482624       0.00102769       0.00000000
Si       2.71448415       0.00058644      -2.71481111       0.00000000
Si      -0.00087966      -2.71474479      -2.71474260       0.00000000
Si      -2.71597306      -2.71420722      -0.00006851       0.00000000
Si      -0.00053757       2.71564074      -2.71498240       0.00000000
