10
Lattice="16.28999089631971 0.0 0.0 0.0 16.28999089631971 0.0 0.0 0.0 34.25627252547053" Properties=species:S:1:pos:R:3:initial_magmoms:R:1 pbc="T T T"
Si       1.36616085       1.34928441      -1.37189597       0.00000000
Si      -1.35391077      -1.36518345      -1.37562990       0.00000000
Si       1.31198031      -1.42501662       1.37203299       0.00000000
Si      -1.32665760       1.35045729       1.48247528       0.00000000
Si      -2.29012965      -0.31170915       2.91425124       0.00000000
Si      -2.70169650       2.69127090      -0.00352840       0.00000000
Si      -2.70495450      -2.70282051       0.00421352       0.00000000
Si       2.70790299       2.72458395       0.01151011       0.00000000
Si       0.00851967       2.70607851      -2.73303546       0.00000000
Si      -2.70545949      -0.00874773      -2.73406315       0.00000000
