10
Lattice="16.28999089631971 0.0 0.0 0.0 16.28999089631971 0.0 0.0 0.0 34.25627252547053" Properties=species:S:1:pos:R:3:initial_magmoms:R:1 pbc="T T T"
Si       1.59819561       1.60898336      -0.54008469       0.00000000
Si       0.83347785      -1.57323933       1.59319161       0.00000000
Si      -2.33131077       0.31970754       0.63058982       0.00000000
Si       0.70017678      -2.09699541      -1.77752472       0.00000000
Si       0.00604359       0.43246692      -3.29946324       0.00000000
Si       0.08260659       3.22638830      -1.32064856       0.00000000
Si      -1.95377373       2.50754481       1.53982031       0.00000000
Si      -0.18660195       2.01061510       2.96419692       0.00000000
Si      -0.91557945      -1.54652373       3.22348279       0.00000000
Si       1.24411617      -3.47030757       0.18172963       0.00000000
