10
Lattice="16.28999089631971 0.0 0.0 0.0 16.28999089631971 0.0 0.0 0.0 34.25627252547053" Properties=species:S:1:pos:R:3:initial_magmoms:R:1 pbc="T T T"
Si       1.35694071       0.60885504       1.82551778       0.00000000
Si       1.15232202       1.49800138      -1.45054841       0.00000000
Si       0.42334452      -2.05913745      -1.19126254       0.00000000
Si      -2.24399637      -0.51994422       0.82057521       0.00000000
Si      -0.61484976       1.99493109      -2.87492502       0.00000000
Si      -1.62509040      -2.12999895      -2.46511700       0.00000000
Si       1.61129277      -1.42641756       3.09875563       0.00000000
Si      -3.41511705      -1.38339567      -1.03337529       0.00000000
Si       3.41923842       1.54678830       0.91111459       0.00000000
Si      -2.04392259      -2.55577068       2.12505480       0.00000000
