10
Lattice="16.28999089631971 0.0 0.0 0.0 16.28999089631971 0.0 0.0 0.0 34.25627252547053" Properties=species:S:1:pos:R:3:initial_magmoms:R:1 pbc="T T T"
Si      -1.55049849      -1.13611347       1.34394424       0.00000000
Si      -0.22314042       1.85169474      -1.42629496       0.00000000
Si       1.19757564       1.49807468       1.38970722       0.00000000
Si       1.01043612      -1.67164722      -1.38285798       0.00000000
Si      -1.72012626       1.03950467      -2.99259538       0.00000000
Si      -0.16317693      -2.46233124       2.74906196       0.00000000
Si       3.26757852       1.23846747      -1.30530174       0.00000000
Si       2.57271228       0.22172319       2.75948615       0.00000000
Si       2.64854223      -2.70109377       0.00058236       0.00000000
Si       2.20348314       3.08108150      -0.22150118       0.00000000
