10
Lattice="16.28999089631971 0.0 0.0 0.0 16.28999089631971 0.0 0.0 0.0 34.25627252547053" Properties=species:S:1:pos:R:3:initial_magmoms:R:1 pbc="T T T"
Si      -1.13761215      -1.55923158       1.31812342       0.00000000
Si       1.55994669       1.23429232       1.27819429       0.00000000
Si       1.41089319      -0.32570391      -1.87685954       0.00000000
Si      -1.80312381       0.85084527      -1.34516764       0.00000000
Si      -0.03368772       1.50104759      -2.72949864       0.00000000
Si      -2.49799005      -0.16589901       2.71962025       0.00000000
Si       0.19002285       2.57125172       2.69636023       0.00000000
Si      -2.42216010      -3.08871597      -0.03928354       0.00000000
Si      -2.86721919       2.69345930      -0.26136708       0.00000000
Si       3.27909555       2.18565113      -0.14592338       0.00000000
