10
Lattice="16.28999089631971 0.0 0.0 0.0 16.28999089631971 0.0 0.0 0.0 34.25627252547053" Properties=species:S:1:pos:R:3:initial_magmoms:R:1 pbc="T T T"
Si      -1.75177773      -1.12494572       1.15954122       0.00000000
Si      -1.42491888       1.24621432      -1.61018273       0.00000000
Si       1.25362953      -1.44913301      -1.60751074       0.00000000
Si       1.61225388       1.21548649       1.56647171       0.00000000
Si       2.56829769       2.61951345      -0.14247192       0.00000000
Si      -2.75284710       2.45842164      -0.07628876       0.00000000
Si      -3.37864374       0.59266278       1.41995755       0.00000000
Si       2.58712893      -2.85618176      -0.25301697       0.00000000
Si      -0.15962571       0.05157072       3.91891977       0.00000000
Si      -1.67521473       1.66897566       3.13835591       0.00000000
