10
Lattice="16.28999089631971 0.0 0.0 0.0 16.28999089631971 0.0 0.0 0.0 34.25627252547053" Properties=species:S:1:pos:R:3:initial_magmoms:R:1 pbc="T T T"
Si       0.83442267       1.85116302       1.19544181       0.00000000
Si      -1.31199660       1.32714630      -1.48956633       0.00000000
Si      -0.95604381      -1.40402695       1.70894362       0.00000000
Si       1.41723000      -1.36402197      -1.46085956       0.00000000
Si      -2.56829769      -2.61951345       0.14247192       0.00000000
Si      -0.92295882       3.48801480       1.14306394       0.00000000
Si      -2.72298753       2.66014071      -0.14791867       0.00000000
Si       2.68100820       2.72438847      -0.06666274       0.00000000
Si      -2.36985291       0.59609997       2.96971218       0.00000000
Si      -2.65667094      -0.01384650      -2.85598129       0.00000000
