10
Lattice="16.28999089631971 0.0 0.0 0.0 16.28999089631971 0.0 0.0 0.0 34.25627252547053" Properties=species:S:1:pos:R:3:initial_magmoms:R:1 pbc="T T T"
Si       1.96354773       0.54328290       1.18989229       0.00000000
Si       0.06258618       2.17819617      -0.96359523       0.00000000
Si       0.13450653      -1.98638209      -1.36802501       0.00000000
Si      -1.96076214      -0.09223724       1.63022266       0.00000000
Si      -0.88334154       2.17179420       2.15732422       0.00000000
Si       0.30762036      -3.22468273       0.71941638       0.00000000
Si       1.85176575       2.74339401       0.40888310       0.00000000
Si      -3.28522059      -0.54994225      -0.27881196       0.00000000
Si       2.46278736      -1.05418682      -2.04047601       0.00000000
Si      -1.25247294      -2.26388224       2.23351022       0.00000000
