10
Lattice="16.28999089631971 0.0 0.0 0.0 16.28999089631971 0.0 0.0 0.0 34.25627252547053" Properties=species:S:1:pos:R:3:initial_magmoms:R:1 pbc="T T T"
Si       0.63110718       2.12207712      -0.76182567       0.00000000
Si      -1.79243757      -0.20184125      -1.50498166       0.00000000
Si       0.27883593       0.16387251       2.32826312       0.00000000
Si       0.97231752      -1.99646560      -0.86253917       0.00000000
Si      -3.23501481      -1.48945564      -0.10297441       0.00000000
Si      -0.47385981       3.48361161       0.89398644       0.00000000
Si       3.27489273      -1.51307614      -0.65415815       0.00000000
Si       0.59665383       1.85347131      -3.12783922       0.00000000
Si      -0.48076677      -0.41056013      -3.65494078       0.00000000
Si      -2.27452383      -2.29247119       2.14180612       0.00000000
