10
Lattice="16.28999089631971 0.0 0.0 0.0 16.28999089631971 0.0 0.0 0.0 34.25627252547053" Properties=species:S:1:pos:R:3:initial_magmoms:R:1 pbc="T T T"
Si      -1.35024552      -1.33392294       1.36594908       0.00000000
Si      -1.37997477       1.37168316      -1.34255203       0.00000000
Si       1.36705680       1.37969784       1.36454457       0.00000000
Si       1.24010883      -1.42904025      -1.47236282       0.00000000
Si       2.00129166       0.60057972      -2.63666703       0.00000000
Si       0.22154400       2.43942750      -2.61793741       0.00000000
Si      -2.71552671      -2.68314219      -0.01979329       0.00000000
Si       0.00685809      -2.69161299       2.72184736       0.00000000
Si       2.72513781      -2.69371440      -0.02729199       0.00000000
Si      -2.70842427       0.02039508       2.72263525       0.00000000
