10
Lattice="16.28999089631971 0.0 0.0 0.0 16.28999089631971 0.0 0.0 0.0 34.25627252547053" Properties=species:S:1:pos:R:3:initial_magmoms:R:1 pbc="T T T"
Si       0.53888949       1.76844240      -1.48055693       0.00000000
Si       0.90907974      -0.14156010       2.20894846       0.00000000
Si       0.79508232      -1.91202246      -1.23065728       0.00000000
Si      -2.41994466      -0.01762578       0.11273746       0.00000000
Si      -1.45158561       1.70328240      -2.88444827       0.00000000
Si       2.77285122       1.06710903      -2.17712436       0.00000000
Si       0.46428129      -3.68546589       0.25887480       0.00000000
Si      -3.20064291       1.72999800      -1.25415709       0.00000000
Si      -3.18813219      -2.04898878      -0.81293606       0.00000000
Si       0.22799484       1.77868881       3.44542930       0.00000000
