10
Lattice="16.28999089631971 0.0 0.0 0.0 16.28999089631971 0.0 0.0 0.0 34.25627252547053" Properties=species:S:1:pos:R:3:initial_magmoms:R:1 pbc="T T T"
Si       0.28955475       1.77057639       1.48925802       0.00000000
Si      -1.83295080       0.98184717      -1.06300699       0.00000000
Si       1.87628220      -0.09826128      -1.47754237       0.00000000
Si      -0.66640761      -1.79681958       1.49473903       0.00000000
Si       2.09008845       0.63757431       2.59066631       0.00000000
Si       1.49996691      -1.71378945       2.58631576       0.00000000
Si      -3.75750027       0.23112252       0.10413913       0.00000000
Si       3.72913938      -0.64487223      -0.01616897       0.00000000
Si       2.23374996       2.10839841      -2.37382399       0.00000000
Si      -1.98092916       0.44437491      -3.34666841       0.00000000
