10
Lattice="16.28999089631971 0.0 0.0 0.0 16.28999089631971 0.0 0.0 0.0 34.25627252547053" Properties=species:S:1:pos:R:3:initial_magmoms:R:1 pbc="T T T"
Si      -0.28955475      -1.77057639      -1.48925802       0.00000000
Si       1.19039175       1.96574688      -0.62185446       0.00000000
Si       1.80053370      -1.13300208       1.10140829       0.00000000
Si      -1.88240724       0.72746253       1.40738549       0.00000000
Si      -0.27849384      -0.15490161       3.37831955       0.00000000
Si      -2.12250555      -0.78872922      -2.55226501       0.00000000
Si      -0.60561333       3.04605081      -1.55468754       0.00000000
Si      -2.44455885       2.58023826      -0.18926601       0.00000000
Si      -0.95596236      -3.56739597       0.00548101       0.00000000
Si      -2.19180321       1.58726502      -2.60433457       0.00000000
