10
Lattice="16.28999089631971 0.0 0.0 0.0 16.28999089631971 0.0 0.0 0.0 34.25627252547053" Properties=species:S:1:pos:R:3:initial_magmoms:R:1 pbc="T T T"
Si      -0.33361920      -0.53937819       2.24025871       0.00000000
Si       0.72066960      -1.67946642      -1.52687143       0.00000000
Si      -1.97701956       1.40577717      -1.05389481       0.00000000
Si       2.16606501       0.27029087       1.64745358       0.00000000
Si       1.77088590      -0.03054375      -2.82771985       0.00000000
Si      -2.25872253       0.42914117       3.22039972       0.00000000
Si      -3.74889915       0.24186140       1.29855325       0.00000000
Si      -1.00214451      -2.66589108      -2.87338349       0.00000000
Si      -1.02097575       2.80980413      -2.76283844       0.00000000
Si       3.84375582       1.63399681       0.45036747       0.00000000
