10
Lattice="16.28999089631971 0.0 0.0 0.0 16.28999089631971 0.0 0.0 0.0 34.25627252547053" Properties=species:S:1:pos:R:3:initial_magmoms:R:1 pbc="T T T"
Si      -1.17872811      -1.54973286       1.31537309       0.00000000
Si      -1.33349940       1.40704875      -1.35449377       0.00000000
Si       1.37888334      -1.33463970      -1.38607807       0.00000000
Si       1.72281411       0.98642466       1.34651206       0.00000000
Si       3.35797173      -0.92289366       1.48648326       0.00000000
Si       2.67256998      -2.71466334       0.00904366       0.00000000
Si       2.77303041       2.63534733       0.04566364       0.00000000
Si      -2.67524154       0.03174921      -2.73789986       0.00000000
Si       0.04199562      -2.68381008      -2.74368917       0.00000000
Si      -2.58712893       2.85618176       0.25301697       0.00000000
