10
Lattice="16.28999089631971 0.0 0.0 0.0 16.28999089631971 0.0 0.0 0.0 34.25627252547053" Properties=species:S:1:pos:R:3:initial_magmoms:R:1 pbc="T T T"
Si      -0.13450653       1.98638209       1.36802501       0.00000000
Si       0.17311383      -1.23830064       2.08744139       0.00000000
Si      -2.36161017       0.13673826      -0.66553123       0.00000000
Si       0.84290976      -0.89870301      -2.21768381       0.00000000
Si       2.32828083       0.93219527      -0.67245101       0.00000000
Si      -0.44212689      -2.83237488      -1.93613135       0.00000000
Si       2.43478485      -0.76453857       2.50149719       0.00000000
Si      -2.67608862      -2.13104151      -1.23956391       0.00000000
Si      -3.41972712       1.43643984       1.08921305       0.00000000
Si      -1.38697947      -0.27750015       3.60153522       0.00000000
