10
Lattice="16.28999089631971 0.0 0.0 0.0 16.28999089631971 0.0 0.0 0.0 34.25627252547053" Properties=species:S:1:pos:R:3:initial_magmoms:R:1 pbc="T T T"
Si      -1.04670418      -1.56120102      -1.38410632       0.00000000
Si       1.26679511      -1.35685926       1.42492471       0.00000000
Si      -1.46579442       1.36011726       1.42242742       0.00000000
Si       1.89954758       0.69869439      -1.55415455       0.00000000
Si      -1.40944338       0.01511712      -3.21085733       0.00000000
Si       2.57981798       2.57654043      -0.07492194       0.00000000
Si       2.60247737       0.00578295       2.80298681       0.00000000
Si       2.92117493      -2.52643239       0.01827573       0.00000000
Si      -2.76109377      -2.71340901      -0.03952148       0.00000000
Si      -0.10888888      -2.71197549       2.80493942       0.00000000
