10
Lattice="16.28999089631971 0.0 0.0 0.0 16.28999089631971 0.0 0.0 0.0 34.25627252547053" Properties=species:S:1:pos:R:3:initial_magmoms:R:1 pbc="T T T"
Si       1.35770143       1.35663120       1.35833048       0.00000000
Si      -1.35777708       1.35575154      -1.36011180       0.00000000
Si      -1.35795627      -1.35837423       1.35809068       0.00000000
Si       1.35919686      -1.36282140      -1.35517890       0.00000000
Si       2.71332917      -2.71448415       0.00226092       0.00000000
Si       2.71341062       2.71476108       0.00147302       0.00000000
Si       2.71365497       0.00009774       2.71556475       0.00000000
Si      -0.00111572       2.71461447       2.71580455       0.00000000
Si      -0.00064057      -2.71531494       2.71573603       0.00000000
Si      -2.71602099       0.00016290       2.71549624       0.00000000
