10
Lattice="16.28999089631971 0.0 0.0 0.0 16.28999089631971 0.0 0.0 0.0 34.25627252547053" Properties=species:S:1:pos:R:3:initial_magmoms:R:1 pbc="T T T"
Si       1.35723425       1.35777313      -1.35743981       0.00000000
Si      -1.35772263      -1.35775122      -1.35754258       0.00000000
Si       1.35625653      -1.35811951       1.36028309       0.00000000
Si      -1.35672894       1.35757765       1.36076267       0.00000000
Si       2.71352045      -2.71398472       0.00010277       0.00000000
Si       2.71442129       2.71415998       0.00034256       0.00000000
Si      -0.00092853      -2.71465261      -2.71446855       0.00000000
Si       2.71421441       0.00086989      -2.71508517       0.00000000
Si      -0.00008145       2.71471384      -2.71508517       0.00000000
Si      -2.71549413       0.00010263      -2.71450281       0.00000000
