10
Lattice="16.28999089631971 0.0 0.0 0.0 16.28999089631971 0.0 0.0 0.0 34.25627252547053" Properties=species:S:1:pos:R:3:initial_magmoms:R:1 pbc="T T T"
Si       1.95449049       1.19565342       0.34821520       0.00000000
Si      -1.62569313       1.60251246       0.52898566       0.00000000
Si       0.30677328      -1.44166500      -1.92876625       0.00000000
Si       0.62193591      -1.52392038       1.82661398       0.00000000
Si      -2.19291093      -2.25133406      -1.33596112       0.00000000
Si      -0.86343516      -3.35481866       0.28138118       0.00000000
Si       3.67138386      -0.36259259       0.07625451       0.00000000
Si       1.54667034       2.28082806       2.46114328       0.00000000
Si       1.98446409      -0.07795905      -3.12585236       0.00000000
Si       2.70493464      -2.41550468       0.85808585       0.00000000
