10
Lattice="16.28999089631971 0.0 0.0 0.0 16.28999089631971 0.0 0.0 0.0 34.25627252547053" Properties=species:S:1:pos:R:3:initial_magmoms:R:1 pbc="T T T"
Si      -1.78917957      -0.56519784      -1.37247833       0.00000000
Si       0.11178198      -2.20011111       0.78100919       0.00000000
Si       1.53575604       0.00716760      -1.81482982       0.00000000
Si      -0.02028105       1.50501681       1.90992529       0.00000000
Si      -2.73510729      -0.57159981       1.74844113       0.00000000
Si      -1.85176575      -2.74339401      -0.40888310       0.00000000
Si       0.77911812       2.06324253      -2.71621562       0.00000000
Si       0.45159138      -1.95553305       3.03983481       0.00000000
Si       3.58509410       0.13958901      -0.68824316       0.00000000
Si      -0.43306965       0.09063756       3.79138359       0.00000000
