10
Lattice="16.28999089631971 0.0 0.0 0.0 16.28999089631971 0.0 0.0 0.0 34.25627252547053" Properties=species:S:1:pos:R:3:initial_magmoms:R:1 pbc="T T T"
Si       1.35526284       1.35698958       1.38782857       0.00000000
Si      -1.36117611      -1.35599589       1.38858221       0.00000000
Si      -1.48502898       1.26467415      -1.44507083       0.00000000
Si       1.42003188      -1.36301688      -1.45169943       0.00000000
Si      -2.72513781       2.69371440       0.02729199       0.00000000
Si       2.71533123       2.71050939       0.01024948       0.00000000
Si      -2.71476108      -2.71531494       0.02106077       0.00000000
Si       2.71693552      -2.71383255       0.02080385       0.00000000
Si       2.71303992       0.00123804       2.74794037       0.00000000
Si      -0.00477297      -2.71570590       2.74872827       0.00000000
