10
Lattice="16.28999089631971 0.0 0.0 0.0 16.28999089631971 0.0 0.0 0.0 34.25627252547053" Properties=species:S:1:pos:R:3:initial_magmoms:R:1 pbc="T T T"
Si      -1.35703845      -1.35708732      -1.35819345       0.00000000
Si      -1.35493704       1.35992178       1.35778238       0.00000000
Si       1.35865116       1.35801585      -1.35863878       0.00000000
Si       1.36006839      -1.35765747       1.35980350       0.00000000
Si      -2.71458189       2.71419093      -0.00119897       0.00000000
Si      -2.71353933      -0.00014661      -2.71549624       0.00000000
Si      -2.71572219      -2.71437827      -0.00113046       0.00000000
Si       2.71603170       2.71430496      -0.00075364       0.00000000
Si       0.00110772       2.71513575      -2.71539347       0.00000000
Si       0.00130320      -2.71513249      -2.71546198       0.00000000
