10
Lattice="16.28999089631971 0.0 0.0 0.0 16.28999089631971 0.0 0.0 0.0 34.25627252547053" Properties=species:S:1:pos:R:3:initial_magmoms:R:1 pbc="T T T"
Si       1.35823148      -1.35321030       1.35908412       0.00000000
Si      -1.35738054      -1.35628911      -1.35788515       0.00000000
Si       1.35752472       1.35816246      -1.35757684       0.00000000
Si      -1.35925389       1.35834165       1.35963222       0.00000000
Si       2.69578227      -0.00351864       2.71765439       0.00000000
Si      -2.71492398       0.00083079      -2.71463983       0.00000000
Si       0.00068418      -2.71482624      -2.71529070       0.00000000
Si      -0.00013032       2.71608057      -2.71412599       0.00000000
Si      -2.71603170      -2.71430496       0.00075364       0.00000000
Si       2.71518692      -2.71538010       0.00013703       0.00000000
