10
Lattice="16.28999089631971 0.0 0.0 0.0 16.28999089631971 0.0 0.0 0.0 34.25627252547053" Properties=species:S:1:pos:R:3:initial_magmoms:R:1 pbc="T T T"
Si      -0.10777464       2.15184384       0.93533379       0.00000000
Si      -1.31307174      -0.33249519      -1.92441570       0.00000000
Si       2.04435006      -1.13487543      -0.57715000       0.00000000
Si      -1.16339922      -1.51529580       1.70620312       0.00000000
Si      -0.42841071      -2.37866580      -2.67596448       0.00000000
Si       1.93102867      -3.16444001       0.62880849       0.00000000
Si       1.77722664       2.46669696       2.27050701       0.00000000
Si       1.88265878      -1.84134015      -2.78445416       0.00000000
Si       3.25657855       2.09722347       0.39357053       0.00000000
Si      -3.35525130      -0.31625406       1.97696485       0.00000000
