10
Lattice="16.28999089631971 0.0 0.0 0.0 16.28999089631971 0.0 0.0 0.0 34.25627252547053" Properties=species:S:1:pos:R:3:initial_magmoms:R:1 pbc="T T T"
Si       1.34418314       1.34304534      -1.37151915       0.00000000
Si      -1.37287233      -1.37075463      -1.37001187       0.00000000
Si      -1.45334493       1.31271336       1.37943235       0.00000000
Si       1.34214472      -1.40901984       1.42081395       0.00000000
Si      -1.95053202      -0.64837458       2.61666684       0.00000000
Si      -0.35938998      -2.44486836       2.74464834       0.00000000
Si       2.69888389       2.68674228       0.02182126       0.00000000
Si       2.68216383      -2.73261492      -0.01198970       0.00000000
Si       2.70124105      -0.01311345      -2.72974686       0.00000000
Si      -0.01427004       2.70277164      -2.73026070       0.00000000
