10
Lattice="16.28999089631971 0.0 0.0 0.0 16.28999089631971 0.0 0.0 0.0 34.25627252547053" Properties=species:S:1:pos:R:3:initial_magmoms:R:1 pbc="T T T"
Si      -0.89295264       2.14905825       0.25226333       0.00000000
Si       2.34278612       0.29866086      -0.26404750       0.00000000
Si       0.19486475      -1.76516811       1.58805317       0.00000000
Si      -1.01421540      -0.94640013      -1.99789544       0.00000000
Si       1.00407066      -0.20031813      -3.25047675       0.00000000
Si       2.61546443      -1.42607547      -1.89766153       0.00000000
Si      -1.66829148      -3.03318171       1.02453717       0.00000000
Si       0.57782489       3.15325530       1.85980833       0.00000000
Si      -0.72912411       3.14058168      -1.88142405       0.00000000
Si      -1.75537782      -3.07804437      -1.28848190       0.00000000
