10
Lattice="16.28999089631971 0.0 0.0 0.0 16.28999089631971 0.0 0.0 0.0 34.25627252547053" Properties=species:S:1:pos:R:3:initial_magmoms:R:1 pbc="T T T"
Si      -1.90184121       0.71478891      -1.16406305       0.00000000
Si      -0.79428411      -1.86685029       1.25501350       0.00000000
Si       0.67835374       1.69725510       1.54769926       0.00000000
Si       1.91864339      -0.55547271      -1.33130226       0.00000000
Si       2.34702152       0.41658417       2.68706352       0.00000000
Si      -3.53072718       0.76605354       0.56279662       0.00000000
Si       1.34760558       3.47322348       0.15857237       0.00000000
Si      -1.28228364       2.66947488      -2.39002721       0.00000000
Si      -1.28153430      -3.61514196      -0.32077592       0.00000000
Si       1.00828325       3.05703027      -2.13368738       0.00000000
