10
Lattice="16.28999089631971 0.0 0.0 0.0 16.28999089631971 0.0 0.0 0.0 34.25627252547053" Properties=species:S:1:pos:R:3:initial_magmoms:R:1 pbc="T T T"
Si       1.91011883      -0.86934843      -1.05170241       0.00000000
Si      -0.32780367      -1.82193876       1.51618347       0.00000000
Si       0.48725019       1.74829167       1.57578942       0.00000000
Si      -1.85285718       0.54661095      -1.46137340       0.00000000
Si      -1.63905093       1.28244654       2.60683528       0.00000000
Si       1.55719761      -1.50708564       2.85135669       0.00000000
Si      -2.22917247      -1.06891722       2.60248473       0.00000000
Si       3.03654952      -1.87655913       0.97442022       0.00000000
Si       3.00785795       0.96669747      -2.06712741       0.00000000
Si      -3.72913938       0.64487223       0.01616897       0.00000000
