10
Lattice="16.28999089631971 0.0 0.0 0.0 16.28999089631971 0.0 0.0 0.0 34.25627252547053" Properties=species:S:1:pos:R:3:initial_magmoms:R:1 pbc="T T T"
Si      -1.14466572       0.49340781      -1.95538338       0.00000000
Si      -1.24652709       1.08857925       1.69630305       0.00000000
Si      -0.20843055      -2.44558512       0.30464120       0.00000000
Si       2.14099470       1.25488386      -0.16792434       0.00000000
Si       3.30887367      -0.63763947      -0.83280471       0.00000000
Si       2.30894460       1.50270363       2.12070425       0.00000000
Si       1.96517673      -1.82749365      -2.36515715       0.00000000
Si      -0.72044154       2.81527038      -2.11375022       0.00000000
Si      -2.19822147      -0.71548938       2.83642095       0.00000000
Si      -0.71224767      -2.52240876       2.60132002       0.00000000
