10
Lattice="16.28999089631971 0.0 0.0 0.0 16.28999089631971 0.0 0.0 0.0 34.25627252547053" Properties=species:S:1:pos:R:3:initial_magmoms:R:1 pbc="T T T"
Si      -1.35213516       1.35418770       1.35761110       0.00000000
Si       1.35797500       1.35630540      -1.35696023       0.00000000
Si      -1.35651717      -1.35847197      -1.35699448       0.00000000
Si       1.35845318      -1.35972630       1.35874155       0.00000000
Si       0.01651806       2.68802919       2.72906173       0.00000000
Si      -2.71393029       2.71301805       0.00051384       0.00000000
Si       0.00048870       2.71393029      -2.71405748       0.00000000
Si      -2.71397916      -0.00096111      -2.71405748       0.00000000
Si       0.00052128      -2.71578735      -2.71350938       0.00000000
Si       2.71493768       2.71459818       0.00051384       0.00000000
