10
Lattice="16.28999089631971 0.0 0.0 0.0 16.28999089631971 0.0 0.0 0.0 34.25627252547053" Properties=species:S:1:pos:R:3:initial_magmoms:R:1 pbc="T T T"
Si      -1.35513252       1.27192320       1.41725130       0.00000000
Si      -1.36865322      -1.33384149      -1.37145064       0.00000000
Si       1.34115570       1.38243419      -1.36836757       0.00000000
Si       1.32807333      -1.44857196       1.55821594       0.00000000
Si       0.65647071       2.08687673       2.48628739       0.00000000
Si       2.43920826       0.45326925       2.50728650       0.00000000
Si      -2.40534882      -0.37699947       2.71809972       0.00000000
Si      -0.77019120      -2.28631779       2.85807093       0.00000000
Si       2.69663587      -2.70405855       0.02302023       0.00000000
Si      -0.01651806      -2.68802919      -2.72906173       0.00000000
