10
Lattice="16.28999089631971 0.0 0.0 0.0 16.28999089631971 0.0 0.0 0.0 34.25627252547053" Properties=species:S:1:pos:R:3:initial_magmoms:R:1 pbc="T T T"
Si       1.05021630       1.64892267      -1.30084842       0.00000000
Si      -0.72066960       1.67946642       1.52687143       0.00000000
Si      -1.72281411      -0.98642466      -1.34651206       0.00000000
Si       1.63515762      -1.90931832       0.13997121       0.00000000
Si      -0.34393077      -2.32106436      -2.73259013       0.00000000
Si       2.40534882       0.37699947      -2.71809972       0.00000000
Si      -2.90154222      -2.53615752      -0.03113897       0.00000000
Si       3.06181953       2.46387620      -0.23181233       0.00000000
Si       1.09040373      -2.96012106       2.36539694       0.00000000
Si       1.44539541       1.94975729       3.17432501       0.00000000
