10
Lattice="16.28999089631971 0.0 0.0 0.0 16.28999089631971 0.0 0.0 0.0 34.25627252547053" Properties=species:S:1:pos:R:3:initial_magmoms:R:1 pbc="T T T"
Si      -2.07906012      -1.17876069      -0.05816718       0.00000000
Si      -0.91339659       1.51709000      -1.61693122       0.00000000
Si       1.54553560      -1.49586183      -1.09287847       0.00000000
Si       0.39413655       1.54253172       1.92935481       0.00000000
Si      -1.20800124      -2.10634587       1.98067724       0.00000000
Si       1.29664720       2.34350939      -1.75169547       0.00000000
Si      -3.12272784       0.99686655      -0.03912069       0.00000000
Si      -0.38102310      -0.29134665       3.27086065       0.00000000
Si       2.21478744       0.28010655      -2.48200536       0.00000000
Si      -1.25452548       3.50822159       1.69181548       0.00000000
