10
Lattice="16.28999089631971 0.0 0.0 0.0 16.28999089631971 0.0 0.0 0.0 34.25627252547053" Properties=species:S:1:pos:R:3:initial_magmoms:R:1 pbc="T T T"
Si      -0.42422418      -2.32186257       0.15836684       0.00000000
Si      -0.27267831       1.72473633       1.63361404       0.00000000
Si       1.81084527      -0.47721555      -1.49549267       0.00000000
Si      -1.61139377       1.22575734      -1.35281521       0.00000000
Si      -2.61546443       1.42607547       1.89766153       0.00000000
Si       0.72044154      -2.81527038       2.11375022       0.00000000
Si      -3.62967983       0.47967534      -0.10023391       0.00000000
Si       3.48698853       0.71117253       1.24929270       0.00000000
Si       2.86143624      -1.56038652       1.94582588       0.00000000
Si       1.12083345      -0.37696689      -3.74887154       0.00000000
