10
Lattice="16.28999089631971 0.0 0.0 0.0 16.28999089631971 0.0 0.0 0.0 34.25627252547053" Properties=species:S:1:pos:R:3:initial_magmoms:R:1 pbc="T T T"
Si      -1.79600508       1.08030393      -0.93283308       0.00000000
Si       1.62888597      -0.05126463      -1.72685966       0.00000000
Si      -1.19039175      -1.96574688       0.62185446       0.00000000
Si       0.58448520       1.24830270       2.01961393       0.00000000
Si       0.61014195      -3.09874896       1.72326275       0.00000000
Si       3.53072718      -0.76605354      -0.56279662       0.00000000
Si       0.75380346      -1.62792486      -3.24122755       0.00000000
Si      -3.63495060       0.61449138       0.43258845       0.00000000
Si       2.73644307      -2.63290383       0.69221689       0.00000000
Si      -1.21028184       3.09034332      -2.00478096       0.00000000
