10
Lattice="16.28999089631971 0.0 0.0 0.0 16.28999089631971 0.0 0.0 0.0 34.25627252547053" Properties=species:S:1:pos:R:3:initial_magmoms:R:1 pbc="T T T"
Si       0.68027040       1.87784604       1.47923262       0.00000000
Si       1.95875847      -1.62940725       0.02719950       0.00000000
Si      -1.89954758      -0.69869439       1.55415455       0.00000000
Si       0.11372049       0.05325201      -2.64479125       0.00000000
Si      -0.49984236       2.34321876      -2.04801240       0.00000000
Si      -2.82580838       1.80151110      -1.35141071       0.00000000
Si      -0.63275247      -2.05555365       2.97907926       0.00000000
Si       2.06381268       0.67240233       2.98969529       0.00000000
Si      -2.94625175      -2.25989541       0.17004823       0.00000000
Si       1.02162735      -3.22512678       1.57243028       0.00000000
