10
Lattice="16.28999089631971 0.0 0.0 0.0 16.28999089631971 0.0 0.0 0.0 34.25627252547053" Properties=species:S:1:pos:R:3:initial_magmoms:R:1 pbc="T T T"
Si      -2.18111697       0.73489077       0.13473000       0.00000000
Si       0.30138129      -1.79418060      -1.45167887       0.00000000
Si       1.62553023       1.63805724      -0.73202270       0.00000000
Si       0.73036215      -1.39077504       1.84384490       0.00000000
Si       1.97146467       2.14557219       1.55242663       0.00000000
Si       2.64134205      -1.92002085      -0.79032691       0.00000000
Si      -0.17787051       2.37001581       2.61423464       0.00000000
Si       3.22059816       0.18383265      -1.64995429       0.00000000
Si      -3.27885609      -1.10115513       1.15015499       0.00000000
Si      -1.98879723       2.82786255       1.19133106       0.00000000
