10
Lattice="16.28999089631971 0.0 0.0 0.0 16.28999089631971 0.0 0.0 0.0 34.25627252547053" Properties=species:S:1:pos:R:3:initial_magmoms:R:1 pbc="T T T"
Si      -1.55313000       0.77028894      -1.58085935       0.00000000
Si       2.32596602       0.54170766      -0.69660169       0.00000000
Si      -0.48318258      -2.48508837      -0.30529207       0.00000000
Si      -0.97043670       1.71677052       1.62025408       0.00000000
Si       1.58817563       3.05372340      -0.14880933       0.00000000
Si       2.82580838      -1.80151110       1.35141071       0.00000000
Si      -2.02335714       0.18305073       3.00014003       0.00000000
Si       2.93952887      -1.74825909      -1.29338055       0.00000000
Si       0.99616934      -2.85456186      -2.18222855       0.00000000
Si      -3.67943112       0.30444381      -0.54981348       0.00000000
