10
Lattice="16.28999089631971 0.0 0.0 0.0 16.28999089631971 0.0 0.0 0.0 34.25627252547053" Properties=species:S:1:pos:R:3:initial_magmoms:R:1 pbc="T T T"
Si      -1.33667921      -1.35296269       1.34777954       0.00000000
Si       1.35532800      -1.35544040      -1.35418547       0.00000000
Si      -1.35844428       1.35612621      -1.35507613       0.00000000
Si       1.35630540       1.34170956       1.40228130       0.00000000
Si       0.08602749      -2.65430759       2.69388052       0.00000000
Si      -2.63198475      -0.03145599       2.73094583       0.00000000
Si       2.71419093      -0.00043983      -2.71268722       0.00000000
Si      -0.00024435      -2.71533236      -2.71241317       0.00000000
Si      -0.00133578       2.71515204      -2.71302979       0.00000000
Si      -2.71563132      -0.00026064      -2.71285851       0.00000000
