10
Lattice="16.28999089631971 0.0 0.0 0.0 16.28999089631971 0.0 0.0 0.0 34.25627252547053" Properties=species:S:1:pos:R:3:initial_magmoms:R:1 pbc="T T T"
Si       1.35743593       1.35711990      -1.35733704       0.00000000
Si      -1.35750351       1.35744570       1.35720002       0.00000000
Si       1.35810382      -1.35723393       1.35747407       0.00000000
Si      -1.35796631      -1.35850455      -1.35767961       0.00000000
Si       0.00326289      -2.71407690      -2.71292702       0.00000000
Si      -2.71650478       0.00029322      -2.71213912       0.00000000
Si       0.00003258      -2.71474479       2.71467409       0.00000000
Si      -2.71495723      -2.71464705       0.00065087       0.00000000
Si      -2.71547851       0.00114030       2.71416025       0.00000000
Si      -2.71498981       2.71507059       0.00010277       0.00000000
