10
Lattice="16.28999089631971 0.0 0.0 0.0 16.28999089631971 0.0 0.0 0.0 34.71893929493243" Properties=species:S:1:pos:R:3:initial_magmoms:R:1 pbc="T T T"
Si       1.86504210       0.97870320       1.08644371       0.00000000
Si      -0.89672377      -1.86078878       1.16552308       0.00000000
Si       1.04257629      -1.72211038      -1.30524957       0.00000000
Si      -1.97406130       1.54792467      -0.29079632       0.00000000
Si       2.65898412      -0.04520475      -1.87918868       0.00000000
Si       0.42187842       2.26791009       2.49307538       0.00000000
Si      -2.32123589      -0.47591235       2.49363088       0.00000000
Si      -1.03183466       3.47550408       0.99502869       0.00000000
Si      -0.83210460      -2.94558386      -2.28359511       0.00000000
Si       2.65512339      -2.97798142      -0.11641371       0.00000000
