10
Lattice="16.28999089631971 0.0 0.0 0.0 16.28999089631971 0.0 0.0 0.0 34.71893929493243" Properties=species:S:1:pos:R:3:initial_magmoms:R:1 pbc="T T T"
Si      -1.35780408      -1.33858188      -1.38320331       0.00000000
Si      -1.35365013       1.30463352       1.45094000       0.00000000
Si       1.35736425       1.37946978      -1.37782188       0.00000000
Si       1.34359920      -1.38828267       1.53926503       0.00000000
Si       2.48469741       0.16011441       2.88816602       0.00000000
Si      -2.71095411      -2.69029676       0.00413156       0.00000000
Si       2.71722087      -2.68701432      -0.00215258       0.00000000
Si      -0.00053757      -2.69586305      -2.74272830       0.00000000
Si      -2.71324448       2.74059702       0.00808952       0.00000000
Si       2.70901071       2.74654287       0.00770761       0.00000000
