10
Lattice="16.28999089631971 0.0 0.0 0.0 16.28999089631971 0.0 0.0 0.0 34.71893929493243" Properties=species:S:1:pos:R:3:initial_magmoms:R:1 pbc="T T T"
Si       0.82262871      -1.44334287      -1.70400649       0.00000000
Si      -2.08777527      -0.76289328       0.90081810       0.00000000
Si       0.05517423       2.41509743      -0.45158950       0.00000000
Si       1.32659244      -1.12945086       1.87596950       0.00000000
Si      -2.34342564       0.96762341       2.62867652       0.00000000
Si      -0.12267999      -0.34415883      -3.64448381       0.00000000
Si       1.68365295       2.44358864      -2.20739668       0.00000000
Si       3.29279544      -1.43977536      -1.55908956       0.00000000
Si      -0.09179415      -3.68885421      -1.52645374       0.00000000
Si      -1.95284520      -3.03968142       1.87530984       0.00000000
