10
Lattice="16.28999089631971 0.0 0.0 0.0 16.28999089631971 0.0 0.0 0.0 34.71893929493243" Properties=species:S:1:pos:R:3:initial_magmoms:R:1 pbc="T T T"
Si      -1.34636850      -1.34438831      -1.31573396       0.00000000
Si      -1.35467640       1.35475785       1.35445602       0.00000000
Si       1.36124127      -1.36003437       1.35546287       0.00000000
Si       1.36647036       1.35532800      -1.36830194       0.00000000
Si       2.56223781      -0.18884183      -2.65320546       0.00000000
Si      -0.06970491      -2.74444865      -2.58832615       0.00000000
Si      -2.66316250      -0.05018786      -2.70288829       0.00000000
Si      -2.70981706       2.71215468      -0.00784648       0.00000000
Si      -2.71165783      -0.00154592       2.71238393       0.00000000
Si       0.00325800       2.71339272       2.71189786       0.00000000
