10
Lattice="16.28999089631971 0.0 0.0 0.0 16.28999089631971 0.0 0.0 0.0 34.71893929493243" Properties=species:S:1:pos:R:3:initial_magmoms:R:1 pbc="T T T"
Si       1.18283319      -1.45355802      -1.49249860       0.00000000
Si      -0.94895766      -1.73167719       1.41229780       0.00000000
Si      -1.52452083       1.25625483      -1.46899386       0.00000000
Si       1.82760768       0.75701683       1.47927067       0.00000000
Si       2.53003248       2.55826891       0.06613962       0.00000000
Si       2.47533066      -2.83429842      -0.07752743       0.00000000
Si       2.54231514      -0.10865562      -2.85612042       0.00000000
Si      -0.17137080       2.60796970      -2.85632873       0.00000000
Si      -2.77853317      -2.75767026      -0.01413062       0.00000000
Si      -2.91322934       2.62895122      -0.07398610       0.00000000
