10
Lattice="16.28999089631971 0.0 0.0 0.0 16.28999089631971 0.0 0.0 0.0 34.71893929493243" Properties=species:S:1:pos:R:3:initial_magmoms:R:1 pbc="T T T"
Si       1.35964485      -1.35406601      -1.35313670       0.00000000
Si      -1.35803214      -1.35623258       1.35702522       0.00000000
Si       1.35734796       1.35816753       1.35705994       0.00000000
Si      -1.36124127       1.36003437      -1.35546287       0.00000000
Si      -2.70760977       0.01564606      -2.67119683       0.00000000
Si       2.70663237      -0.02500464      -2.70711359       0.00000000
Si       2.71371852      -2.71330361      -0.00020831       0.00000000
Si      -0.00047241      -2.71353167       2.71401572       0.00000000
Si       2.71334385       2.71446642      -0.00086797       0.00000000
Si       2.71450044       0.00079693       2.71384213       0.00000000
