10
Lattice="16.28999089631971 0.0 0.0 0.0 16.28999089631971 0.0 0.0 0.0 34.71893929493243" Properties=species:S:1:pos:R:3:initial_magmoms:R:1 pbc="T T T"
Si       0.55126989      -0.17433558      -2.23402612       0.00000000
Si       1.82715156       0.99456966       1.08305792       0.00000000
Si      -1.98956286       1.27842291       0.27570325       0.00000000
Si      -0.56754360      -2.26986489       0.49061361       0.00000000
Si       0.95244372       0.36240363       3.23441819       0.00000000
Si      -1.32890562      -1.48559913      -2.81272172       0.00000000
Si      -2.36540574      -2.68337514      -0.99952410       0.00000000
Si      -1.32045111      -0.43994403       3.47255553       0.00000000
Si       2.85778728      -0.63283392      -2.35658404       0.00000000
Si       0.32594661       1.93064193      -3.24025098       0.00000000
