10
Lattice="16.28999089631971 0.0 0.0 0.0 16.28999089631971 0.0 0.0 0.0 34.71893929493243" Properties=species:S:1:pos:R:3:initial_magmoms:R:1 pbc="T T T"
Si       1.22881986       0.63301311      -1.88076071       0.00000000
Si       1.49035581       0.22289607       1.79017447       0.00000000
Si      -0.46485144      -2.29460030       0.13168901       0.00000000
Si      -2.02403250       1.33771851      -0.02166463       0.00000000
Si      -2.02789323      -1.59505816       1.74111034       0.00000000
Si      -0.35434008      -0.61651948       3.07272996       0.00000000
Si       3.38660955       0.88728372      -0.71864773       0.00000000
Si       0.03194469       2.54557314      -2.51833967       0.00000000
Si      -2.24095014       1.74322548      -2.28020233       0.00000000
Si      -3.64044033      -0.33918712       0.55227448       0.00000000
