10
Lattice="16.28999089631971 0.0 0.0 0.0 16.28999089631971 0.0 0.0 0.0 34.71893929493243" Properties=species:S:1:pos:R:3:initial_magmoms:R:1 pbc="T T T"
Si      -1.86504210      -0.97870320      -1.08644371       0.00000000
Si       1.26786699      -1.43397612       1.41366573       0.00000000
Si      -1.44316368       1.28920689       1.40663167       0.00000000
Si       1.44834390       1.35060390      -1.95603979       0.00000000
Si       0.79394202      -1.02390795      -2.96563239       0.00000000
Si       2.42914851       2.57307066      -0.06554939       0.00000000
Si      -0.82246581      -2.70081358      -2.39169328       0.00000000
Si       2.62282032      -0.07552044       2.77873880       0.00000000
Si      -2.89687676       2.49680088      -0.09141502       0.00000000
Si      -0.10062333       2.64267783       2.77974565       0.00000000
