10
Lattice="16.28999089631971 0.0 0.0 0.0 16.28999089631971 0.0 0.0 0.0 34.71893929493243" Properties=species:S:1:pos:R:3:initial_magmoms:R:1 pbc="T T T"
Si       1.35656604       1.35449721      -1.35626140       0.00000000
Si      -1.35725022       1.35685926       1.35824038       0.00000000
Si       1.35760860      -1.35751086       1.35792791       0.00000000
Si      -1.35870003      -1.35798327      -1.35896948       0.00000000
Si      -2.71575477      -0.00068418       2.71370325       0.00000000
Si      -2.71490769       2.71459818      -0.00010416       0.00000000
Si       0.00322542      -2.71480995      -2.71523088       0.00000000
Si      -2.71494027      -2.71520091      -0.00010416       0.00000000
Si       0.00032580       2.71479366       2.71543920       0.00000000
Si       2.71557558       2.71467963       0.00024303       0.00000000
