10
Lattice="16.28999089631971 0.0 0.0 0.0 16.28999089631971 0.0 0.0 0.0 34.71893929493243" Properties=species:S:1:pos:R:3:initial_magmoms:R:1 pbc="T T T"
Si       1.41206607      -1.25874459      -1.41219365       0.00000000
Si      -1.53064098      -1.10587923       1.49659543       0.00000000
Si      -1.30632768       1.48054923      -1.38386297       0.00000000
Si       1.77393213       1.20565548       1.20339383       0.00000000
Si      -2.67173919      -2.65427631       0.14769445       0.00000000
Si       2.84939793      -2.48810202       0.01392230       0.00000000
Si       0.05874174      -2.60664435      -2.77942624       0.00000000
Si       3.57866865      -0.47995227       1.25849281       0.00000000
Si      -2.65797414       0.11347614      -2.76939246       0.00000000
Si      -2.59361235       2.91112074       0.19578021       0.00000000
