10
Lattice="16.28999089631971 0.0 0.0 0.0 16.28999089631971 0.0 0.0 0.0 34.71893929493243" Properties=species:S:1:pos:R:3:initial_magmoms:R:1 pbc="T T T"
Si      -1.14109821      -1.54839708      -1.34890098       0.00000000
Si       1.53064098       1.10587923      -1.49659543       0.00000000
Si      -1.04106132       1.40120064       1.66942641       0.00000000
Si      -2.42843175      -0.52445655       2.31884453       0.00000000
Si      -2.47862124       2.48991021       0.02166463       0.00000000
Si      -2.48469741      -0.16011441      -2.88816602       0.00000000
Si      -1.84352301      -3.34964917       0.06423007       0.00000000
Si       0.22431330       2.58642846      -2.88045841       0.00000000
Si       3.30457311       2.31153471      -0.29320161       0.00000000
Si       0.23252346      -2.84712873      -2.89031859       0.00000000
