10
Lattice="16.28999089631971 0.0 0.0 0.0 16.28999089631971 0.0 0.0 0.0 34.71893929493243" Properties=species:S:1:pos:R:3:initial_magmoms:R:1 pbc="T T T"
Si       2.18098665      -0.78198516       0.31441489       0.00000000
Si      -0.44769807      -1.33991766      -1.96002409       0.00000000
Si      -1.84927338      -0.17326044       1.54624354       0.00000000
Si       1.06243380       2.22811362       0.15585341       0.00000000
Si       3.10634010       0.56034342      -1.35640028       0.00000000
Si      -3.04197831       1.79219322       0.47974657       0.00000000
Si       0.74917710      -3.25247769      -1.32244514       0.00000000
Si      -2.50367526      -2.54777229       0.53665094       0.00000000
Si       0.28051380       2.83990086       2.25625254       0.00000000
Si      -0.86846877       1.04920632       3.43673394       0.00000000
