10
Lattice="16.28999089631971 0.0 0.0 0.0 16.28999089631971 0.0 0.0 0.0 34.71893929493243" Properties=species:S:1:pos:R:3:initial_magmoms:R:1 pbc="T T T"
Si       0.31055256       0.46246333      -2.25298267       0.00000000
Si      -1.46199818      -1.83711845       0.35927178       0.00000000
Si       2.11232430      -0.20552930       1.11888788       0.00000000
Si      -1.24064640       1.88275910       0.83019974       0.00000000
Si       1.74930165       1.60521008       2.53903217       0.00000000
Si      -2.06413033       0.44465347      -2.79425123       0.00000000
Si       0.18309960      -3.34930286       1.11395779       0.00000000
Si      -3.48407981      -0.22457394      -0.91685826       0.00000000
Si       1.81711692      -2.22913730       2.34085635       0.00000000
Si       1.82552256       2.31713195      -2.25256604       0.00000000
