10
Lattice="16.28999089631971 0.0 0.0 0.0 16.28999089631971 0.0 0.0 0.0 34.71893929493243" Properties=species:S:1:pos:R:3:initial_magmoms:R:1 pbc="T T T"
Si       1.19687517      -1.91256003       0.63757896       0.00000000
Si       0.87470784       0.63216603      -2.15136028       0.00000000
Si       0.44769807       1.33991766       1.96002409       0.00000000
Si      -2.27289483      -0.80234766       0.23813734       0.00000000
Si      -0.95244372      -0.36240363      -3.23441819       0.00000000
Si      -2.05597719      -1.20785463       2.49667504       0.00000000
Si       2.62868472       0.55793250       2.27443898       0.00000000
Si      -0.03194469      -2.54557314       2.51833967       0.00000000
Si       0.61364430       2.97781200      -1.89454414       0.00000000
Si      -3.50862165       0.99991278      -0.64983475       0.00000000
