10
Lattice="16.28999089631971 0.0 0.0 0.0 16.28999089631971 0.0 0.0 0.0 34.71893929493243" Properties=species:S:1:pos:R:3:initial_magmoms:R:1 pbc="T T T"
Si       0.78192000      -0.61178724      -2.10039913       0.00000000
Si       1.77999201       1.09910259       1.23736147       0.00000000
Si      -1.14898257      -1.79069454       1.18048140       0.00000000
Si      -1.79875809       0.89907768      -1.53045271       0.00000000
Si      -2.33709372      -0.36038367       2.65120079       0.00000000
Si       0.38825586       2.37379509       2.64515622       0.00000000
Si      -0.28051380      -2.83990086      -2.25625254       0.00000000
Si      -2.12978718      -3.01316130      -0.71000899       0.00000000
Si      -2.73447198       2.64588696      -0.19071753       0.00000000
Si      -3.32249211      -1.04770764      -1.77650597       0.00000000
