10
Lattice="16.28999089631971 0.0 0.0 0.0 16.28999089631971 0.0 0.0 0.0 34.71893929493243" Properties=species:S:1:pos:R:3:initial_magmoms:R:1 pbc="T T T"
Si       1.36668213       1.33227765       1.37853709       0.00000000
Si       1.39173615      -1.27469250      -1.40779475       0.00000000
Si      -1.34381097      -1.38482919       1.37482216       0.00000000
Si      -1.46093607       1.37534841      -1.50810824       0.00000000
Si      -0.38825586      -2.37379509      -2.64515622       0.00000000
Si      -2.70010008       2.68480377       0.01859547       0.00000000
Si       2.72723922       2.68343541      -0.01827606       0.00000000
Si       0.00996948       2.68978851       2.73809679       0.00000000
Si      -2.70534546      -0.02599884       2.73733297       0.00000000
Si       2.71155195      -2.74771575       0.00382603       0.00000000
