10
Lattice="16.28999089631971 0.0 0.0 0.0 16.28999089631971 0.0 0.0 0.0 34.71893929493243" Properties=species:S:1:pos:R:3:initial_magmoms:R:1 pbc="T T T"
Si       2.02629681       0.67587210       0.90890762       0.00000000
Si      -1.29518532       1.71620037       0.92342014       0.00000000
Si      -0.81202392      -2.05638444       0.79850133       0.00000000
Si       0.22071321       0.15613965      -2.38418561       0.00000000
Si      -2.24744985      -2.59633278      -1.05556050       0.00000000
Si       2.17802187       2.90064627       0.15508959       0.00000000
Si      -0.10513566       3.65146866       0.17914983       0.00000000
Si      -1.59866802      -1.13290434      -3.15574503       0.00000000
Si       0.92719422      -3.67264566       0.56501633       0.00000000
Si       2.02298994       0.48066903       3.21865579       0.00000000
