10
Lattice="16.28999089631971 0.0 0.0 0.0 16.28999089631971 0.0 0.0 0.0 34.71893929493243" Properties=species:S:1:pos:R:3:initial_magmoms:R:1 pbc="T T T"
Si       0.40643550      -2.27203146      -0.55473952       0.00000000
Si      -2.08959975       0.19073961       1.11135387       0.00000000
Si       1.43542593       0.53994834       1.85406183       0.00000000
Si       0.64878183       1.46342844      -2.10018453       0.00000000
Si       2.24744985       2.59633278       1.05556050       0.00000000
Si      -2.73272895       2.36302740       0.74059011       0.00000000
Si      -1.04365143      -3.44826720       0.92553800       0.00000000
Si       3.17464407      -1.07631288       1.62057684       0.00000000
Si       2.65256586      -2.76701940       0.04589846       0.00000000
Si      -1.86712722      -0.46972215       3.31868111       0.00000000
