10
Lattice="16.28999089631971 0.0 0.0 0.0 16.28999089631971 0.0 0.0 0.0 34.71893929493243" Properties=species:S:1:pos:R:3:initial_magmoms:R:1 pbc="T T T"
Si      -0.24838992      -2.34585774      -0.07936754       0.00000000
Si      -1.97063388       1.24582662      -0.56522465       0.00000000
Si       1.41597567       0.12201210      -1.97082169       0.00000000
Si       1.15000884       0.07775217       2.26402330       0.00000000
Si      -2.21591241       0.58178106      -2.82813694       0.00000000
Si      -1.05621102       3.49133796      -0.74277740       0.00000000
Si       1.41395571       3.49490547      -0.59786047       0.00000000
Si       2.15971191      -2.11274784      -2.37915136       0.00000000
Si       1.93844484      -3.30164091      -0.39690714       0.00000000
Si      -1.73698641      -3.08957769       1.54593107       0.00000000
