10
Lattice="16.28999089631971 0.0 0.0 0.0 16.28999089631971 0.0 0.0 0.0 34.71893929493243" Properties=species:S:1:pos:R:3:initial_magmoms:R:1 pbc="T T T"
Si      -0.93719628      -2.11950819       0.43336204       0.00000000
Si      -1.25183763       1.61758464       1.25342385       0.00000000
Si       2.33406378      -0.57536280       0.26625969       0.00000000
Si       2.91261942       1.53963536      -0.39343524       0.00000000
Si       0.16506657       1.13934445      -3.26021438       0.00000000
Si       0.26313237       3.47225327       1.25384047       0.00000000
Si      -3.28662805      -1.91330937       0.01447781       0.00000000
Si      -3.74336381       0.00764001      -1.23870301       0.00000000
Si      -0.43429140      -2.99719710       2.59989450       0.00000000
Si      -1.56239019       1.15512131       3.50640651       0.00000000
