10
Lattice="16.28999089631971 0.0 0.0 0.0 16.28999089631971 0.0 0.0 0.0 34.71893929493243" Properties=species:S:1:pos:R:3:initial_magmoms:R:1 pbc="T T T"
Si       1.29518532      -1.71620037      -0.92342014       0.00000000
Si       1.19004966       1.93526829      -0.74427032       0.00000000
Si      -2.30712012      -0.09609471      -0.64997363       0.00000000
Si      -0.01503567       0.12805569       2.39581646       0.00000000
Si       3.32148213      -1.04032827      -0.01451252       0.00000000
Si      -1.61810199       1.82708640       2.59739474       0.00000000
Si      -3.25211931       0.70692084       1.37049618       0.00000000
Si       3.47320719       1.18444590      -0.76833056       0.00000000
Si       0.48316140      -3.77258481      -0.12491881       0.00000000
Si       0.46123506       2.32573959      -2.98360843       0.00000000
