10
Lattice="16.28999089631971 0.0 0.0 0.0 16.28999089631971 0.0 0.0 0.0 34.71893929493243" Properties=species:S:1:pos:R:3:initial_magmoms:R:1 pbc="T T T"
Si      -0.77075646      -0.75549503       2.11110910       0.00000000
Si      -1.24333588       1.74719372      -1.10222278       0.00000000
Si       1.87468089       1.22347348       0.97834554       0.00000000
Si       0.25565037      -1.73051669      -1.72785842       0.00000000
Si       0.82578408      -2.53876133       2.36347822       0.00000000
Si      -0.06461917       1.08479508       3.44911819       0.00000000
Si       2.34342564      -0.96762341      -2.62867652       0.00000000
Si      -2.55281797       0.48976537      -2.69828803       0.00000000
Si       0.83210460       2.94558386       2.28359511       0.00000000
Si      -1.81100395      -1.76477456      -2.87809752       0.00000000
