10
Lattice="16.28999089631971 0.0 0.0 0.0 16.28999089631971 0.0 0.0 0.0 34.71893929493243" Properties=species:S:1:pos:R:3:initial_magmoms:R:1 pbc="T T T"
Si      -1.35366642       1.35444671       1.35577534       0.00000000
Si       1.35454608      -1.35433964       1.36105262       0.00000000
Si      -1.35615879      -1.35793586      -1.35653915       0.00000000
Si       1.35870003       1.35750923      -1.35619196       0.00000000
Si      -0.00034209       2.70234647       2.72300793       0.00000000
Si      -2.71277370       2.71353770       0.00104157       0.00000000
Si      -2.71331127      -0.00056526      -2.71332134       0.00000000
Si      -2.71262709      -2.71410201       0.00055550       0.00000000
Si       0.00187335       2.71422188      -2.71328662       0.00000000
Si       2.71511946       0.02892778       2.71297415       0.00000000
