10
Lattice="16.28999089631971 0.0 0.0 0.0 16.28999089631971 0.0 0.0 0.0 34.71893929493243" Properties=species:S:1:pos:R:3:initial_magmoms:R:1 pbc="T T T"
Si      -1.22881986      -0.63301311       1.88076071       0.00000000
Si      -1.19687517       1.91256003      -0.63757896       0.00000000
Si       0.71177526      -1.49286610      -1.70372874       0.00000000
Si       2.15778969       0.25427061       1.16211299       0.00000000
Si       1.43180955       2.47049253       1.63686003       0.00000000
Si       0.73651977      -3.23127530      -0.15675610       0.00000000
Si      -0.74917710       3.25247769       1.32244514       0.00000000
Si      -3.46977000       1.11021237      -0.39944162       0.00000000
Si       2.40051069      -2.46188231       1.30039860       0.00000000
Si       0.26153595      -0.41011704       3.67093519       0.00000000
