10
Lattice="16.28999089631971 0.0 0.0 0.0 16.28999089631971 0.0 0.0 0.0 34.71893929493243" Properties=species:S:1:pos:R:3:initial_magmoms:R:1 pbc="T T T"
Si       1.42706916      -1.27690794       1.41019730       0.00000000
Si      -1.30735395       1.42140024       1.39518830       0.00000000
Si       0.74134161       1.82303019      -1.39996706       0.00000000
Si      -1.14595263      -1.72155978      -1.27830876       0.00000000
Si      -0.57889773       1.12785444      -3.38575262       0.00000000
Si       0.65829519      -3.41881488      -1.30636474       0.00000000
Si       2.66406660      -2.69993718      -0.00647509       0.00000000
Si       2.64173301       2.73989655      -0.07209739       0.00000000
Si       0.06367761      -2.64632679       2.77097564       0.00000000
Si      -2.64925899       0.07392402       2.77007295       0.00000000
