10
Lattice="16.28999089631971 0.0 0.0 0.0 16.28999089631971 0.0 0.0 0.0 34.71893929493243" Properties=species:S:1:pos:R:3:initial_magmoms:R:1 pbc="T T T"
Si      -1.35668007      -1.35884664       1.35695578       0.00000000
Si      -1.35760860       1.35751086      -1.35792791       0.00000000
Si       1.35796698      -1.35816246      -1.35737241       0.00000000
Si       1.35909099       1.35964485       1.35702522       0.00000000
Si      -0.00104256       2.71200807      -2.71418932       0.00000000
Si      -2.71485882       2.71437012       0.00031247       0.00000000
Si       0.00242721      -2.71793763       2.71168955       0.00000000
Si       2.71479366      -2.71487511      -0.00027775       0.00000000
Si       2.71450044      -0.00130320      -2.71564751       0.00000000
Si       2.71546155       2.71480995      -0.00041663       0.00000000
