10
Lattice="16.28999089631971 0.0 0.0 0.0 16.28999089631971 0.0 0.0 0.0 34.71893929493243" Properties=species:S:1:pos:R:3:initial_magmoms:R:1 pbc="T T T"
Si       1.80493200      -1.06872174       1.05615072       0.00000000
Si      -0.45413262       1.97395704      -1.29081617       0.00000000
Si      -1.36028016      -0.11070684       1.98214007       0.00000000
Si       0.37975248       0.38048553      -2.95229193       0.00000000
Si      -0.75587229      -2.20286412       3.00482172       0.00000000
Si       2.18448900      -1.30512222      -2.89719295       0.00000000
Si      -3.60641052       0.38428110       1.38150209       0.00000000
Si       1.20562290      -3.13913187       2.00692941       0.00000000
Si      -0.83820195       1.57999968       3.55681844       0.00000000
Si       2.68653051      -0.01140300       3.02659051       0.00000000
