10
Lattice="16.28999089631971 0.0 0.0 0.0 16.28999089631971 0.0 0.0 0.0 34.71893929493243" Properties=species:S:1:pos:R:3:initial_magmoms:R:1 pbc="T T T"
Si      -1.80493200       1.06872174      -1.05615072       0.00000000
Si      -0.59930910      -2.07041013       0.95077868       0.00000000
Si       0.88159851       1.05731874       1.97043978       0.00000000
Si      -2.56080429      -1.13414238       1.94867099       0.00000000
Si      -3.16521216       0.95801490       0.92598935       0.00000000
Si       2.42009127       0.18327879      -2.61322658       0.00000000
Si       0.92297511      -2.49119712       2.65044531       0.00000000
Si       0.61397010      -0.47043891       3.74041230       0.00000000
Si      -0.29797668       3.01446450       2.33342650       0.00000000
Si       3.18449952       1.52704089       1.71150579       0.00000000
