10
Lattice="16.28999089631971 0.0 0.0 0.0 16.28999089631971 0.0 0.0 0.0 34.71893929493243" Properties=species:S:1:pos:R:3:initial_magmoms:R:1 pbc="T T T"
Si       1.35677781       1.35694071       1.35619196       0.00000000
Si      -1.35739683       1.35778779      -1.35667803       0.00000000
Si       1.35759231      -1.35757602      -1.35761544       0.00000000
Si      -1.35693419      -1.35808101       1.35851813       0.00000000
Si       0.00118917       2.71319724      -2.71408516       0.00000000
Si      -2.71462955      -2.71484253      -0.00034719       0.00000000
Si       2.71528236       2.71448415       0.00072910       0.00000000
Si      -2.71494337       2.71516833       0.00041663       0.00000000
Si       2.71383255      -0.00035838      -2.71648077       0.00000000
Si      -2.71551761       0.00029322      -2.71484898       0.00000000
