10
Lattice="16.28999089631971 0.0 0.0 0.0 16.28999089631971 0.0 0.0 0.0 34.71893929493243" Properties=species:S:1:pos:R:3:initial_magmoms:R:1 pbc="T T T"
Si       1.36853919       1.43299872      -1.21582321       0.00000000
Si      -1.00243773      -1.61209098      -1.48069415       0.00000000
Si       1.32023934       0.69517575       1.98578556       0.00000000
Si      -3.04634403       0.05567922       0.03155953       0.00000000
Si      -0.31755726       3.04968348      -0.63546110       0.00000000
Si      -0.30972177       2.68079643       1.97571706       0.00000000
Si      -2.44920150       1.96015941      -1.36771866       0.00000000
Si      -1.98307944       0.14441085      -2.83855263       0.00000000
Si      -1.92779118      -2.95441956       0.19012102       0.00000000
Si      -0.56705490      -2.84941422       2.10744385       0.00000000
