10
Lattice="16.28999089631971 0.0 0.0 0.0 16.28999089631971 0.0 0.0 0.0 34.71893929493243" Properties=species:S:1:pos:R:3:initial_magmoms:R:1 pbc="T T T"
Si       1.44212112      -1.33566597       1.29112864       0.00000000
Si       1.36432008       1.33437906      -1.38278669       0.00000000
Si      -1.35039213      -1.38095217      -1.38018277       0.00000000
Si      -1.21028184       1.43615898       1.66199655       0.00000000
Si      -2.69612532       2.68424991       0.01499859       0.00000000
Si      -2.71176372      -2.72484459       0.00701323       0.00000000
Si       0.00811242       2.69394246      -2.74293661       0.00000000
Si       2.74494645       2.69255781      -0.01135310       0.00000000
Si      -2.70640431      -0.02179602      -2.74272830       0.00000000
Si       2.73535164      -2.72738583      -0.03461480       0.00000000
