10
Lattice="16.28999089631971 0.0 0.0 0.0 16.28999089631971 0.0 0.0 0.0 34.71893929493243" Properties=species:S:1:pos:R:3:initial_magmoms:R:1 pbc="T T T"
Si      -1.35620766       1.35956340      -1.36014993       0.00000000
Si       1.36093176      -1.35610992      -1.36042768       0.00000000
Si      -1.36432008      -1.33437906       1.38278669       0.00000000
Si       1.38062637       1.35817875       1.37143359       0.00000000
Si       0.07780104      -2.67004503       2.67391532       0.00000000
Si      -2.71471221      -2.71533123       0.00260392       0.00000000
Si      -2.71329498       0.00146610      -2.71710571       0.00000000
Si       2.71797021       2.71352304      -0.00138876       0.00000000
Si       0.00201996      -2.71366965      -2.71786952       0.00000000
Si      -2.71423980       2.71862181      -0.00319414       0.00000000
