10
Lattice="16.28999089631971 0.0 0.0 0.0 16.28999089631971 0.0 0.0 0.0 34.71893929493243" Properties=species:S:1:pos:R:3:initial_magmoms:R:1 pbc="T T T"
Si       0.46612206      -1.81574856      -1.47083397       0.00000000
Si      -0.59714253      -1.90448019       1.39927819       0.00000000
Si      -2.28206610       0.88469361       0.04978699       0.00000000
Si       2.13164424       1.08952407       0.73225756       0.00000000
Si       2.44920150      -1.96015941       1.36771866       0.00000000
Si       1.73827332       2.69387730      -1.24977836       0.00000000
Si      -0.52593894       3.53181861      -0.98695584       0.00000000
Si      -3.17782062      -0.39361527       1.96922462       0.00000000
Si      -1.98347040       3.11619555       0.82915817       0.00000000
Si       1.44676377      -3.57225039      -0.11297549       0.00000000
