10
Lattice="16.28999089631971 0.0 0.0 0.0 16.28999089631971 0.0 0.0 0.0 34.71893929493243" Properties=species:S:1:pos:R:3:initial_magmoms:R:1 pbc="T T T"
Si      -1.36055709      -1.35115776       1.39681315       0.00000000
Si       1.35529542       1.36309833       1.39111924       0.00000000
Si      -1.56142908       1.24872624      -1.41641547       0.00000000
Si       1.46860866      -1.36590021      -1.45967876       0.00000000
Si      -2.72723922      -2.68343541       0.01827606       0.00000000
Si      -2.72435589       2.69465207       0.04946757       0.00000000
Si       2.71060713      -2.71554300       0.03859012       0.00000000
Si       2.71635750       2.72324817       0.00649592       0.00000000
Si      -0.00224802      -2.71112841       2.75619926       0.00000000
Si       2.71415835       0.00309510       2.75640757       0.00000000
