10
Lattice="16.28999089631971 0.0 0.0 0.0 16.28999089631971 0.0 0.0 0.0 34.71893929493243" Properties=species:S:1:pos:R:3:initial_magmoms:R:1 pbc="T T T"
Si      -1.35407367       1.35923760      -1.35292838       0.00000000
Si      -1.35586557      -1.35834165       1.35667803       0.00000000
Si       1.35826020       1.35679410       1.35737241       0.00000000
Si       1.35671265      -1.35751086      -1.35955970       0.00000000
Si      -0.00708615       2.68829897      -2.70690528       0.00000000
Si      -2.71371852       2.71330361       0.00020831       0.00000000
Si      -0.00996948      -2.68978851      -2.73809679       0.00000000
Si       0.00078192       2.71410054       2.71405044       0.00000000
Si      -2.71419093      -0.00022806       2.71422403       0.00000000
Si       2.71422351       2.71428867      -0.00069438       0.00000000
