10
Lattice="16.28999089631971 0.0 0.0 0.0 16.28999089631971 0.0 0.0 0.0 34.71893929493243" Properties=species:S:1:pos:R:3:initial_magmoms:R:1 pbc="T T T"
Si      -2.29653162      -0.64275453       0.14123672       0.00000000
Si       1.19048949       0.40899303       2.06654186       0.00000000
Si      -0.43030035       2.50665537       0.10870506       0.00000000
Si       0.00513135      -2.07441747      -1.73067065       0.00000000
Si       1.66985532       0.99460224      -2.14636075       0.00000000
Si      -0.04412961       2.73233866      -2.16566449       0.00000000
Si       1.26954486       2.79817795       1.67619661       0.00000000
Si       0.95765652      -0.84233961      -3.41301252       0.00000000
Si      -3.08728080       0.92041758       1.77799259       0.00000000
Si       1.63831788      -3.40405614      -0.61775443       0.00000000
