10
Lattice="16.28999089631971 0.0 0.0 0.0 16.28999089631971 0.0 0.0 0.0 34.71893929493243" Properties=species:S:1:pos:R:3:initial_magmoms:R:1 pbc="T T T"
Si       1.35762489      -1.35638685       1.35740713       0.00000000
Si      -1.35726651       1.35835794       1.35751129       0.00000000
Si      -1.36682874      -1.35536058      -1.36298299       0.00000000
Si       1.36339155       1.36941885      -1.36077834       0.00000000
Si       2.60038899      -0.05361039      -2.77745073       0.00000000
Si      -0.06367761       2.64632679      -2.77097564       0.00000000
Si      -2.71327869      -2.70863767       0.00048607       0.00000000
Si       2.71676475      -2.70987897       0.00118044       0.00000000
Si       0.00024435      -2.71236808       2.71571695       0.00000000
Si      -2.71379997       0.00149868       2.71578639       0.00000000
