10
Lattice="16.28999089631971 0.0 0.0 0.0 16.28999089631971 0.0 0.0 0.0 34.71893929493243" Properties=species:S:1:pos:R:3:initial_magmoms:R:1 pbc="T T T"
Si      -1.48682088       0.25770291      -1.83927156       0.00000000
Si       1.52234937       1.83548878       0.12547432       0.00000000
Si       1.54939077      -1.75561632      -0.52182595       0.00000000
Si      -1.49737680      -0.86613345       1.73837826       0.00000000
Si      -1.45787355      -2.00793213      -2.34873756       0.00000000
Si      -0.79104240      -3.14458317       1.65185862       0.00000000
Si       1.39577607       2.53656151       2.38713672       0.00000000
Si       0.76623273      -2.73071943      -2.52118662       0.00000000
Si      -1.81185525      -3.33146205      -0.44929804       0.00000000
Si      -0.60766587       1.81776526      -3.42884436       0.00000000
