10
Lattice="16.28999089631971 0.0 0.0 0.0 16.28999089631971 0.0 0.0 0.0 34.71893929493243" Properties=species:S:1:pos:R:3:initial_magmoms:R:1 pbc="T T T"
Si       0.56011536      -2.29107447       0.38364449       0.00000000
Si      -2.04053427      -0.41967927      -1.34011709       0.00000000
Si       2.00467998       0.80032770      -1.30251645       0.00000000
Si      -0.13162320       0.32325876      -2.53580331       0.00000000
Si       2.48011992      -0.88479135       1.09763988       0.00000000
Si       0.84405006       2.90905191      -0.48582239       0.00000000
Si      -2.42009127      -0.18327879       2.61322658       0.00000000
Si       3.72811704      -1.07766495      -1.12194315       0.00000000
Si       1.42824204       3.02474349       2.29822147       0.00000000
Si       1.13759586      -3.83366905      -1.24661893       0.00000000
