10
Lattice="16.28999089631971 0.0 0.0 0.0 16.28999089631971 0.0 0.0 0.0 34.71893929493243" Properties=species:S:1:pos:R:3:initial_magmoms:R:1 pbc="T T T"
Si       1.69427403       1.04953212      -1.22563969       0.00000000
Si       1.24199847      -1.34964279       1.49826889       0.00000000
Si      -1.06556148      -1.67800032      -1.32344300       0.00000000
Si      -1.46860866       1.36590021       1.45967876       0.00000000
Si       3.30413328      -0.70146369      -0.92823879       0.00000000
Si       2.46479103      -2.74675464       0.01449517       0.00000000
Si      -2.80411173      -2.59222770       0.07016007       0.00000000
Si       2.68007967       2.76411978       0.01467223       0.00000000
Si       2.60276733       0.01368360       2.85795011       0.00000000
Si       0.56439963      -3.66362100      -1.31337450       0.00000000
