10
Lattice="16.28999089631971 0.0 0.0 0.0 16.28999089631971 0.0 0.0 0.0 34.71893929493243" Properties=species:S:1:pos:R:3:initial_magmoms:R:1 pbc="T T T"
Si       1.35557465      -1.35474156      -1.35629612       0.00000000
Si      -1.35632169      -1.36401057       1.35140075       0.00000000
Si      -1.36029645       1.35806472      -1.35640028       0.00000000
Si       1.35135065       1.36438524       1.37407223       0.00000000
Si      -2.57865813       0.00873144       2.76550394       0.00000000
Si       2.71232477       0.00185706      -2.71346022       0.00000000
Si      -0.00260231      -2.71345788      -2.71352965       0.00000000
Si       2.71165688       2.71568961       0.00090269       0.00000000
Si       2.71222703      -2.71513575       0.00548560       0.00000000
Si      -2.71609686       2.71349046       0.00253448       0.00000000
