10
Lattice="16.28999089631971 0.0 0.0 0.0 16.28999089631971 0.0 0.0 0.0 34.71893929493243" Properties=species:S:1:pos:R:3:initial_magmoms:R:1 pbc="T T T"
Si       0.86456961       1.75699053      -1.45534931       0.00000000
Si       1.05293414       0.38752281       2.22590188       0.00000000
Si       1.68357706      -1.85991075      -0.00239561       0.00000000
Si      -1.81995138      -1.01424798      -1.53485573       0.00000000
Si      -1.75581765       0.25213662       2.07529104       0.00000000
Si       2.11005740       0.34140582      -2.92628743       0.00000000
Si       3.39652106      -0.98199378      -1.42663673       0.00000000
Si      -0.59761494      -2.38698999      -2.94895891       0.00000000
Si       2.69414513       2.78298360      -0.02892089       0.00000000
Si      -0.98186346      -3.71400597       0.59001398       0.00000000
