10
Lattice="16.28999089631971 0.0 0.0 0.0 16.28999089631971 0.0 0.0 0.0 34.71893929493243" Properties=species:S:1:pos:R:3:initial_magmoms:R:1 pbc="T T T"
Si       0.28523790      -0.84206268       2.16521314       0.00000000
Si      -0.64510029       2.22741315      -0.42409208       0.00000000
Si      -1.16781381      -1.88905356      -0.80471602       0.00000000
Si       2.05338449      -0.55881216      -1.15051685       0.00000000
Si      -0.50398002      -0.20807217      -2.83122692       0.00000000
Si      -0.17681166      -2.96308584       1.14419800       0.00000000
Si       1.36170295       3.20359140       0.15734632       0.00000000
Si      -1.76112819       1.80732663      -2.46362259       0.00000000
Si      -1.81343538      -0.26070516       3.12126911       0.00000000
Si       2.20808736       0.38022489       2.84709349       0.00000000
