10
Lattice="16.28999089631971 0.0 0.0 0.0 16.28999089631971 0.0 0.0 0.0 34.71893929493243" Properties=species:S:1:pos:R:3:initial_magmoms:R:1 pbc="T T T"
Si      -1.40483331      -1.45407798      -1.24575096       0.00000000
Si       1.58511474      -1.73162700       0.46308147       0.00000000
Si       1.18063404       1.77999201      -1.10027852       0.00000000
Si      -0.89673192       0.29807442       2.22933906       0.00000000
Si      -1.66527783      -1.96920036       2.41633537       0.00000000
Si      -2.36274558       0.07731234      -2.73824955       0.00000000
Si       3.46529025      -0.42036345       1.04177707       0.00000000
Si       3.23996697       1.68461406       0.03555221       0.00000000
Si      -2.86249509      -2.34815463       0.41690526       0.00000000
Si       0.54861462      -2.92940301       2.27627909       0.00000000
