10
Lattice="16.28999089631971 0.0 0.0 0.0 16.28999089631971 0.0 0.0 0.0 34.71893929493243" Properties=species:S:1:pos:R:3:initial_magmoms:R:1 pbc="T T T"
Si      -1.22406318       1.72272356       0.99855197       0.00000000
Si       2.35084641       0.16254162       0.08763065       0.00000000
Si      -1.29220425      -1.57253886       1.45836986       0.00000000
Si       0.10024866       1.85583240      -2.14271525       0.00000000
Si      -0.47723184       3.39842699      -0.51245183       0.00000000
Si      -0.01848915      -0.94475484       3.36829450       0.00000000
Si       2.80758217      -1.75840776       1.34081147       0.00000000
Si       2.46768969       1.75467639       2.03848894       0.00000000
Si      -1.24067898       0.51489141      -3.50161530       0.00000000
Si      -0.96725133      -3.72529494       0.10335834       0.00000000
