10
Lattice="16.28999089631971 0.0 0.0 0.0 16.28999089631971 0.0 0.0 0.0 34.71893929493243" Properties=species:S:1:pos:R:3:initial_magmoms:R:1 pbc="T T T"
Si       0.64312920      -2.17228779       0.37076376       0.00000000
Si      -2.02546765       0.53162415       1.05288714       0.00000000
Si       1.37787336       1.85341104       0.58841691       0.00000000
Si      -0.63762318      -0.36981558      -2.44997804       0.00000000
Si       0.87496848       2.73109995      -1.57811555       0.00000000
Si      -1.33378610      -3.23077941      -0.25497603       0.00000000
Si       1.48458915       0.72588240      -3.11873462       0.00000000
Si      -2.24050054       2.73688290       0.24153980       0.00000000
Si       2.73272895      -2.36302740      -0.74059011       0.00000000
Si       0.43287417       2.65642659       2.60888671       0.00000000
