10
Lattice="16.28999089631971 0.0 0.0 0.0 16.28999089631971 0.0 0.0 0.0 34.71893929493243" Properties=species:S:1:pos:R:3:initial_magmoms:R:1 pbc="T T T"
Si       1.54476767       1.44774117       0.95046621       0.00000000
Si       0.09687826       0.58885092      -2.32946853       0.00000000
Si      -2.21466201       0.50650497       0.85849569       0.00000000
Si       0.94326268      -2.23451559       0.36027863       0.00000000
Si      -1.90992498      -0.38732733      -2.91090694       0.00000000
Si      -3.17547879       0.87444720      -1.30234286       0.00000000
Si      -0.97958679      -3.45680316      -0.32160171       0.00000000
Si       2.86205852       0.08741214       2.37297139       0.00000000
Si       1.89751133      -2.11867740       2.52497099       0.00000000
Si       2.55522008       2.71365336      -0.77346896       0.00000000
