10
Lattice="16.28999089631971 0.0 0.0 0.0 16.28999089631971 0.0 0.0 0.0 34.71893929493243" Properties=species:S:1:pos:R:3:initial_magmoms:R:1 pbc="T T T"
Si      -0.24527853      -0.66404556      -2.26291229       0.00000000
Si       1.97063388      -1.24582662       0.56522465       0.00000000
Si       0.91442286       2.24551134      -0.17755275       0.00000000
Si      -1.83334176      -0.70333704       1.44274633       0.00000000
Si      -1.20982572      -2.87013510      -2.11091269       0.00000000
Si       3.38660955      -1.12381452      -1.40559704       0.00000000
Si       1.94121414      -0.62925012      -3.27066479       0.00000000
Si      -1.86105105       0.64917279       3.40176357       0.00000000
Si      -0.03088584       3.34469538      -2.11803008       0.00000000
Si      -1.81240911      -3.14374194       1.65484445       0.00000000
