10
Lattice="16.28999089631971 0.0 0.0 0.0 16.28999089631971 0.0 0.0 0.0 34.71893929493243" Properties=species:S:1:pos:R:3:initial_magmoms:R:1 pbc="T T T"
Si      -1.35727488      -1.35651717      -1.35685162       0.00000000
Si       1.35616368      -1.35658233       1.35817095       0.00000000
Si       1.35735285       1.35867236      -1.35660859       0.00000000
Si      -1.35630770       1.35674440       1.36362182       0.00000000
Si       2.71461936      -2.71114470       0.00003472       0.00000000
Si      -0.00054083      -2.71332756      -2.71394628       0.00000000
Si       2.71439130       0.00185706      -2.71370325       0.00000000
Si      -2.71508918       0.00123804      -2.71339078       0.00000000
Si      -2.71578965      -2.71420722       0.00086797       0.00000000
Si      -0.00047567       2.71657809      -2.71380741       0.00000000
