10
Lattice="16.28999089631971 0.0 0.0 0.0 16.28999089631971 0.0 0.0 0.0 34.71893929493243" Properties=species:S:1:pos:R:3:initial_magmoms:R:1 pbc="T T T"
Si       1.24548779      -1.41558471      -1.47093812       0.00000000
Si      -0.86456961      -1.75699053       1.45534931       0.00000000
Si      -1.47252870       1.29815010      -1.44930821       0.00000000
Si       1.82957551       1.02599307       1.42642842       0.00000000
Si       2.53195144      -2.73898431       0.02871258       0.00000000
Si       2.60579401      -0.06428034      -2.84410766       0.00000000
Si      -2.68452099      -2.77123851      -0.07950642       0.00000000
Si      -0.10667736       2.64904639      -2.83865678       0.00000000
Si       2.77853317       2.75767026       0.01413062       0.00000000
Si       3.55265026      -0.94550418       1.36712844       0.00000000
