10
Lattice="16.28999089631971 0.0 0.0 0.0 16.28999089631971 0.0 0.0 0.0 34.71893929493243" Properties=species:S:1:pos:R:3:initial_magmoms:R:1 pbc="T T T"
Si       0.93719628       2.11950819      -0.43336204       0.00000000
Si       0.50290488      -0.87768891       2.16653246       0.00000000
Si      -2.34943177       0.20619882      -0.41888424       0.00000000
Si       0.60962067      -2.00521755      -1.54061907       0.00000000
Si      -0.87496848      -2.73109995       1.57811555       0.00000000
Si      -1.51259166      -3.10091553      -0.87186249       0.00000000
Si      -3.11546902       0.00578295       1.81965534       0.00000000
Si       3.27126006       1.54414539      -0.16710235       0.00000000
Si      -0.31464135       3.73709283       0.82006180       0.00000000
Si      -2.80616753       2.12714820      -1.67206505       0.00000000
