10
Lattice="16.28999089631971 0.0 0.0 0.0 16.28999089631971 0.0 0.0 0.0 34.71893929493243" Properties=species:S:1:pos:R:3:initial_magmoms:R:1 pbc="T T T"
Si      -0.96608171      -1.83150099      -1.08684228       0.00000000
Si      -0.45673576       1.92094938      -1.25318081       0.00000000
Si      -0.76603725      -0.20041587       2.23853958       0.00000000
Si       2.34943177      -0.20619882       0.41888424       0.00000000
Si       0.83684011      -3.30711435      -0.45297825       0.00000000
Si       0.67512928       0.56395980      -3.34166506       0.00000000
Si      -2.82607132       0.81365292       2.02748303       0.00000000
Si      -2.80758217       1.75840776      -1.34081147       0.00000000
Si      -0.33989248       3.51308415       0.69767748       0.00000000
Si       3.28662805       1.91330937      -0.01447781       0.00000000
