10
Lattice="10.86 0.0 0.0 0.0 10.86 0.0 0.0 0.0 10.86" Properties=species:S:1:pos:R:3:initial_magmoms:R:1 pbc="T T T"
Si      -1.31866464       1.20716502      -1.24949730       0.00000000
Si       1.39633536       1.20716502       1.46550270       0.00000000
Si      -1.31866464      -1.50783498       1.46550270       0.00000000
Si       0.03883536       2.56466502      -2.60699730       0.00000000
Si      -2.27935110      -2.85767868       0.18794316       0.00000000
Si      -2.67616464       2.56466502       0.10800270       0.00000000
Si       2.75383536       2.56466502       0.10800270       0.00000000
Si       0.03883536       2.56466502       2.82300270       0.00000000
Si      -2.67616464      -0.15033498       2.82300270       0.00000000
Si      -2.79950166       0.04068156      -2.73763224       0.00000000
