10
Lattice="10.86 0.0 0.0 0.0 10.86 0.0 0.0 0.0 10.86" Properties=species:S:1:pos:R:3:initial_magmoms:R:1 pbc="T T T"
Si       1.31590620      -1.25153898      -1.26305058       0.00000000
Si      -1.39909380      -1.25153898       1.45194942       0.00000000
Si       1.31590620       1.46346102       1.45194942       0.00000000
Si      -0.11999214       2.72435046      -2.43148884       0.00000000
Si      -0.04159380      -2.60903898      -2.62055058       0.00000000
Si      -2.60119806       0.08641302      -2.65742028       0.00000000
Si       2.67340620      -2.60903898       0.09444942       0.00000000
Si       2.67340620       0.10596102      -2.62055058       0.00000000
Si      -2.75659380      -2.60903898       0.09444942       0.00000000
Si      -0.04159380      -2.60903898       2.80944942       0.00000000
