10
Lattice="10.86 0.0 0.0 0.0 10.86 0.0 0.0 0.0 10.86" Properties=species:S:1:pos:R:3:initial_magmoms:R:1 pbc="T T T"
Si      -1.35064734       0.73738314       1.86578058       0.00000000
Si       0.39939822       1.58469120      -1.88179908       0.00000000
Si      -1.32658158      -1.80807054      -1.10125830       0.00000000
Si       1.23432588      -1.74547350       1.56483912       0.00000000
Si      -2.62621950       2.08011354       0.41998878       0.00000000
Si      -2.62621950      -0.63488646      -2.29501122       0.00000000
Si      -1.29506586       0.85726668      -3.29311038       0.00000000
Si       0.08878050       2.08011354       3.13498878       0.00000000
Si      -1.19025600       3.55249062      -0.82882434       0.00000000
Si       0.08878050      -3.34988646      -2.29501122       0.00000000
