10
Lattice="16.28999089631971 0.0 0.0 0.0 16.28999089631971 0.0 0.0 0.0 34.383488856416385" Properties=species:S:1:pos:R:3:initial_magmoms:R:1 pbc="T T T"
Si      -1.35886293       1.35477577       1.36131185       0.00000000
Si       1.35467640       1.35409159      -1.37017248       0.00000000
Si       1.36005210      -1.36026411       1.36203391       0.00000000
Si      -1.38095217      -1.35292264      -1.38561412       0.00000000
Si       2.53228050      -0.23687452      -2.70731273       0.00000000
Si      -2.71482461       2.71121149       0.00378219       0.00000000
Si      -2.71765744      -2.70899998       0.00175356       0.00000000
Si       2.71735119       2.71259614       0.00202863       0.00000000
Si       0.00060273       2.71288936       2.71846330       0.00000000
Si       2.71564074      -2.71624903       0.00722054       0.00000000
