10
Lattice="16.28999089631971 0.0 0.0 0.0 16.28999089631971 0.0 0.0 0.0 34.383488856416385" Properties=species:S:1:pos:R:3:initial_magmoms:R:1 pbc="T T T"
Si       1.52694315      -1.13727760       1.36452671       0.00000000
Si       1.79258418       1.00218035      -1.19786813       0.00000000
Si      -1.17760410       1.59096611       1.33714025       0.00000000
Si      -1.57097502      -1.43979558      -1.25863857       0.00000000
Si       0.06638175       1.18052327      -3.00947641       0.00000000
Si       0.18336024      -2.47937451       2.71453326       0.00000000
Si      -2.53228050       0.23687452       2.70731273       0.00000000
Si       2.88608301      -2.45233311      -0.03777028       0.00000000
Si      -2.41971660       3.05120171      -0.12355370       0.00000000
Si       3.74531535      -0.48821456      -1.19264458       0.00000000
