10
Lattice="16.28999089631971 0.0 0.0 0.0 16.28999089631971 0.0 0.0 0.0 34.383488856416385" Properties=species:S:1:pos:R:3:initial_magmoms:R:1 pbc="T T T"
Si       1.34382726       1.34224224      -1.38558661       0.00000000
Si      -1.36777356      -1.37362757      -1.38073853       0.00000000
Si       1.52699202      -1.15883639       1.43472064       0.00000000
Si      -1.35438318       1.29708636       1.54251294       0.00000000
Si      -0.39348495      -2.04901714       2.73919655       0.00000000
Si       2.70050733       2.70097485      -0.03011995       0.00000000
Si      -2.71624347       2.68979991       0.00006877       0.00000000
Si       2.69894349      -2.72775628      -0.01065889       0.00000000
Si      -0.00723276       2.70237579      -2.74387271       0.00000000
Si       2.70642060      -0.01281697      -2.74187847       0.00000000
