10
Lattice="16.28999089631971 0.0 0.0 0.0 16.28999089631971 0.0 0.0 0.0 34.383488856416385" Properties=species:S:1:pos:R:3:initial_magmoms:R:1 pbc="T T T"
Si      -1.83374901       0.48221658       1.41274958       0.00000000
Si       1.17301032       2.01919437       0.46331777       0.00000000
Si      -0.77004459       0.22701744      -2.27876700       0.00000000
Si       1.70784360      -1.64426210       0.65479953       0.00000000
Si      -1.21927392      -0.60000305       3.38863225       0.00000000
Si       2.59123401       2.25059382      -1.39308221       0.00000000
Si       3.56353524      -0.25826166       1.20215059       0.00000000
Si      -0.98792334       2.77014708      -2.46502246       0.00000000
Si       2.82001077       1.73205054       2.12878614       0.00000000
Si      -1.83733281       2.81380428       2.17403483       0.00000000
