10
Lattice="16.28999089631971 0.0 0.0 0.0 16.28999089631971 0.0 0.0 0.0 34.383488856416385" Properties=species:S:1:pos:R:3:initial_magmoms:R:1 pbc="T T T"
Si       0.55346904       2.30407389      -0.14049101       0.00000000
Si       0.54499824      -1.92488016      -1.29154771       0.00000000
Si      -2.42338185      -0.05708016      -0.22524636       0.00000000
Si       1.72620243      -0.17834292       1.81160828       0.00000000
Si      -0.06638175      -1.18052327       3.00947641       0.00000000
Si      -1.63735677      -2.62031885       1.75083784       0.00000000
Si      -2.46822822       0.62235945      -2.51927964       0.00000000
Si      -2.88417708      -2.32160912      -0.25299385       0.00000000
Si      -1.19000079       3.29662359       1.34267599       0.00000000
Si       0.96119145      -1.19363835      -3.48009239       0.00000000
