10
Lattice="16.28999089631971 0.0 0.0 0.0 16.28999089631971 0.0 0.0 0.0 34.383488856416385" Properties=species:S:1:pos:R:3:initial_magmoms:R:1 pbc="T T T"
Si       1.34983827       1.34918667       1.38439350       0.00000000
Si      -1.36845774      -1.36440153       1.38360268       0.00000000
Si      -1.37430585       1.37098269      -1.44612565       0.00000000
Si       1.45538118      -1.31020470      -1.45097716       0.00000000
Si       2.70324405       2.69821044      -0.01629434       0.00000000
Si      -2.73395070       2.69426826       0.02129714       0.00000000
Si       2.70557352      -2.73367377       0.01158037       0.00000000
Si      -2.72235222      -2.71943631       0.01070702       0.00000000
Si       2.70477531      -0.00682551       2.74512083       0.00000000
Si      -0.00993690       2.70558981       2.74656494       0.00000000
