10
Lattice="16.28999089631971 0.0 0.0 0.0 16.28999089631971 0.0 0.0 0.0 34.383488856416385" Properties=species:S:1:pos:R:3:initial_magmoms:R:1 pbc="T T T"
Si      -1.46837475      -0.36330610       1.77246984       0.00000000
Si       1.54531501       1.73253109       0.30731980       0.00000000
Si       1.10739583      -2.07319476       0.25643220       0.00000000
Si      -1.78252740       0.22420904      -1.70157105       0.00000000
Si      -0.04715466       3.36609229       1.00196981       0.00000000
Si      -2.29763349      -2.54415495       1.16178435       0.00000000
Si      -0.65649744      -3.57865140      -0.15482894       0.00000000
Si       3.19764229      -1.95800817      -0.97284698       0.00000000
Si       2.55773851       2.53246784      -1.58679890       0.00000000
Si      -0.46020294      -0.53603059       3.93481428       0.00000000
