10
Lattice="16.28999089631971 0.0 0.0 0.0 16.28999089631971 0.0 0.0 0.0 34.383488856416385" Properties=species:S:1:pos:R:3:initial_magmoms:R:1 pbc="T T T"
Si      -1.28704032       1.49543829       1.21277510       0.00000000
Si      -1.37645613      -1.33771851      -1.35924884       0.00000000
Si       1.33636644       1.37816658      -1.35955829       0.00000000
Si       1.40366043      -1.37813400       1.44713309       0.00000000
Si      -2.69980686       0.32663079       2.65279080       0.00000000
Si       2.69001657      -2.69345376      -0.00646410       0.00000000
Si      -0.01772352      -2.69205282      -2.72021686       0.00000000
Si       2.69583210       0.02308293      -2.71921974       0.00000000
Si      -2.72673423      -2.70462870       0.02372462       0.00000000
Si      -0.00057015       2.66005926       2.77626198       0.00000000
