10
Lattice="16.28999089631971 0.0 0.0 0.0 16.28999089631971 0.0 0.0 0.0 34.383488856416385" Properties=species:S:1:pos:R:3:initial_magmoms:R:1 pbc="T T T"
Si      -0.03582171      -1.70942912      -1.55877634       0.00000000
Si      -2.29538222       0.39162968      -0.13192952       0.00000000
Si       0.44299026      -0.59033870       2.23822884       0.00000000
Si       1.46841318       1.83365306      -0.39087172       0.00000000
Si       2.29768821      -1.92693320      -1.51682846       0.00000000
Si      -2.48591006       2.49424514       0.87210330       0.00000000
Si      -1.47980315      -3.29255648      -0.52510494       0.00000000
Si       0.60121503       1.52058533       3.35507395       0.00000000
Si       0.22331961       3.76284518      -0.04727732       0.00000000
Si       1.83384675       2.06210402      -2.68445801       0.00000000
