10
Lattice="16.28999089631971 0.0 0.0 0.0 16.28999089631971 0.0 0.0 0.0 34.383488856416385" Properties=species:S:1:pos:R:3:initial_magmoms:R:1 pbc="T T T"
Si      -0.77592528      -1.80876015      -1.33789668       0.00000000
Si       1.92047697       0.89018075      -1.30447591       0.00000000
Si      -2.04651270       1.56119517       0.34256289       0.00000000
Si      -0.69058197      -2.74431114       1.14225452       0.00000000
Si       0.39348495       2.04901714      -2.73919655       0.00000000
Si       2.02211028      -0.23894172       2.85713199       0.00000000
Si       1.52301726      -2.50968627       2.15168555       0.00000000
Si      -2.34453825      -0.67885317      -2.73826820       0.00000000
Si      -0.96089823       3.34610351      -1.19668361       0.00000000
Si      -2.92509756      -0.25242984       2.65258450       0.00000000
