10
Lattice="16.28999089631971 0.0 0.0 0.0 16.28999089631971 0.0 0.0 0.0 34.383488856416385" Properties=species:S:1:pos:R:3:initial_magmoms:R:1 pbc="T T T"
Si       0.49909302       2.27074455       0.70544644       0.00000000
Si      -2.21359923      -0.23462487      -1.00943103       0.00000000
Si       1.64069622      -0.80627355      -1.79808555       0.00000000
Si       0.31623777      -0.81065556       2.57401818       0.00000000
Si      -1.52301726       2.50968627      -2.15168555       0.00000000
Si       2.39945184       2.11219398       2.20439547       0.00000000
Si       1.49900580      -2.79559206       2.45034070       0.00000000
Si      -3.99072420      -0.09646938       0.71469560       0.00000000
Si       0.33896232      -2.24257914      -3.37199064       0.00000000
Si       3.65441715      -1.64414970      -0.86522660       0.00000000
