10
Lattice="16.28999089631971 0.0 0.0 0.0 16.28999089631971 0.0 0.0 0.0 34.383488856416385" Properties=species:S:1:pos:R:3:initial_magmoms:R:1 pbc="T T T"
Si      -2.25479664       0.50562531      -0.47442364       0.00000000
Si       0.16268823      -0.83453670       2.20532382       0.00000000
Si       0.84960495      -1.94017158      -1.08342434       0.00000000
Si       1.25459064       2.04913539      -0.03287063       0.00000000
Si      -2.68517844       2.29131882       0.98893846       0.00000000
Si      -0.38646396      -3.19437126       1.95838147       0.00000000
Si      -0.40553955      -3.80742912      -0.34947398       0.00000000
Si       3.59644104       1.38095217      -0.03981610       0.00000000
Si       2.23554186      -0.10581984       3.21613019       0.00000000
Si       1.01287962      -1.74293226      -3.41572646       0.00000000
