10
Lattice="16.28999089631971 0.0 0.0 0.0 16.28999089631971 0.0 0.0 0.0 34.383488856416385" Properties=species:S:1:pos:R:3:initial_magmoms:R:1 pbc="T T T"
Si      -0.16268823       0.83453670      -2.20532382       0.00000000
Si      -1.78373871       0.39038985       1.53402021       0.00000000
Si       2.07285363       0.72871686       1.01080637       0.00000000
Si      -0.54915219      -2.35983456      -0.24694235       0.00000000
Si       1.76383233      -2.31262614       1.03614702       0.00000000
Si      -1.97724762       2.65860945       0.91473885       0.00000000
Si       0.68691672      -1.10563488      -3.28874816       0.00000000
Si       2.12602419      -0.81008541       2.85414062       0.00000000
Si       1.52572140       2.67584427       2.22175914       0.00000000
Si      -3.73690971      -0.53789580       0.49436608       0.00000000
