10
Lattice="16.28999089631971 0.0 0.0 0.0 16.28999089631971 0.0 0.0 0.0 34.383488856416385" Properties=species:S:1:pos:R:3:initial_magmoms:R:1 pbc="T T T"
Si       1.34223084       1.34377839       1.37868240       0.00000000
Si       1.42570080      -1.23739003      -1.44115380       0.00000000
Si      -1.36508571      -1.37430259       1.37658501       0.00000000
Si      -1.46735433       1.28629098      -1.47794415       0.00000000
Si      -0.51807087      -2.09934769      -2.52172190       0.00000000
Si      -2.47080204      -0.60895278      -2.52694544       0.00000000
Si      -2.72318301       2.68514586       0.00576611       0.00000000
Si       2.71992501       2.69894349       0.01179010       0.00000000
Si       2.70247842      -2.73304565       0.00059140       0.00000000
Si      -0.00547344       2.69695611       2.74064754       0.00000000
