10
Lattice="16.28999089631971 0.0 0.0 0.0 16.28999089631971 0.0 0.0 0.0 34.383488856416385" Properties=species:S:1:pos:R:3:initial_magmoms:R:1 pbc="T T T"
Si      -0.71498439      -2.18169431      -0.38069420       0.00000000
Si      -1.56037023       0.73197486       1.62977828       0.00000000
Si       0.05005917       1.06057674      -2.13511270       0.00000000
Si       1.99133847       0.50731295       1.21205304       0.00000000
Si       1.31668812      -2.84044562      -1.35942076       0.00000000
Si      -0.44277849      -0.26347935       3.46847076       0.00000000
Si       1.79657523       2.85837372       1.30867070       0.00000000
Si      -1.21951827       3.00444615      -1.71755938       0.00000000
Si      -0.28616643       3.68466768       0.45317464       0.00000000
Si      -2.61534321      -2.02314374      -1.87964324       0.00000000
