10
Lattice="16.28999089631971 0.0 0.0 0.0 16.28999089631971 0.0 0.0 0.0 34.383488856416385" Properties=species:S:1:pos:R:3:initial_magmoms:R:1 pbc="T T T"
Si       2.28903822      -0.23157212      -0.16204947       0.00000000
Si       0.14038722       1.96075074       1.26545063       0.00000000
Si      -1.32414894      -1.65589709       1.04615262       0.00000000
Si      -1.11759174       0.99545421      -1.83869248       0.00000000
Si       2.43411696       0.77079230      -2.25641772       0.00000000
Si      -0.41790366       1.07447700       3.29610623       0.00000000
Si       0.44277849       0.26347935      -3.46847076       0.00000000
Si      -2.85562071      -2.02840052      -0.66889677       0.00000000
Si      -2.27359530      -0.31152344       2.74875517       0.00000000
Si      -3.26788803       0.08333475      -1.66381796       0.00000000
