10
Lattice="16.28999089631971 0.0 0.0 0.0 16.28999089631971 0.0 0.0 0.0 34.383488856416385" Properties=species:S:1:pos:R:3:initial_magmoms:R:1 pbc="T T T"
Si      -1.89405459       0.34697700      -1.32073931       0.00000000
Si       1.68551001      -1.10032434      -1.22914165       0.00000000
Si       0.51282549       2.10642732       0.97762629       0.00000000
Si       0.03741813      -2.16262293       1.39208509       0.00000000
Si       2.01168468      -2.95626752       0.20028393       0.00000000
Si      -1.08789507       1.02767094      -3.35988764       0.00000000
Si      -2.89282707      -1.77111885      -1.51710353       0.00000000
Si       2.82002706       1.92155211       1.63156623       0.00000000
Si       0.35890128       3.68110017      -0.90163873       0.00000000
Si      -3.07090935       2.21252409      -0.50055511       0.00000000
