10
Lattice="16.28999089631971 0.0 0.0 0.0 16.28999089631971 0.0 0.0 0.0 34.383488856416385" Properties=species:S:1:pos:R:3:initial_magmoms:R:1 pbc="T T T"
Si      -1.44515106       1.23053031      -1.34491092       0.00000000
Si       1.48392126      -1.46417778      -1.21635098       0.00000000
Si      -1.04143599      -1.50537519       1.59188766       0.00000000
Si       0.59245101       2.26958796       0.98364340       0.00000000
Si       0.59851089       1.33323876       3.10177065       0.00000000
Si       0.22814145      -3.44924460       1.17433433       0.00000000
Si       2.44227825      -2.56619628       0.88338109       0.00000000
Si       2.76785019      -0.03288951      -2.60781717       0.00000000
Si       0.03842811       2.57867442      -2.80462837       0.00000000
Si      -2.65173507      -0.22871160      -2.74304751       0.00000000
