10
Lattice="16.28999089631971 0.0 0.0 0.0 16.28999089631971 0.0 0.0 0.0 34.383488856416385" Properties=species:S:1:pos:R:3:initial_magmoms:R:1 pbc="T T T"
Si       1.32180318       1.36563957       1.39256990       0.00000000
Si      -1.22838003       1.20264183      -1.62179443       0.00000000
Si      -1.37730321      -1.36179513       1.38507429       0.00000000
Si       2.04944490      -0.87384447      -1.30709937       0.00000000
Si       2.69601129       2.71349046       0.03998458       0.00000000
Si       2.70229923      -2.71116099       0.01972926       0.00000000
Si       2.69076591       0.00107514       2.74573286       0.00000000
Si      -2.74313826       2.70692559      -0.01416944       0.00000000
Si      -2.34128025      -0.47361546      -3.02579482       0.00000000
Si      -0.02309922      -2.71314837       2.74858669       0.00000000
