10
Lattice="16.28999089631971 0.0 0.0 0.0 16.28999089631971 0.0 0.0 0.0 34.383488856416385" Properties=species:S:1:pos:R:3:initial_magmoms:R:1 pbc="T T T"
Si      -1.34563545       1.35044100       1.35718583       0.00000000
Si       1.37420811       1.34785089      -1.35258532       0.00000000
Si      -1.32180318      -1.36563957      -1.39256990       0.00000000
Si       1.36896273      -1.36456443       1.35316296       0.00000000
Si       2.36931534      -0.37778139      -2.57149443       0.00000000
Si       0.72764172      -2.23948404      -2.69966927       0.00000000
Si      -2.70475902       2.70897813      -0.00794259       0.00000000
Si      -2.70391194      -0.00646713       2.71268687       0.00000000
Si       0.00951336       2.70787041       2.71292755       0.00000000
Si      -2.69910639      -2.72743470      -0.00749560       0.00000000
