10
Lattice="16.28999089631971 0.0 0.0 0.0 16.28999089631971 0.0 0.0 0.0 34.383488856416385" Properties=species:S:1:pos:R:3:initial_magmoms:R:1 pbc="T T T"
Si      -1.35659862      -1.35749457       1.35794227       0.00000000
Si      -1.35790182       1.35736425      -1.35752967       0.00000000
Si       1.35819504      -1.35728280      -1.35735775       0.00000000
Si       1.35907470       1.35966114       1.35787350       0.00000000
Si      -0.00268785       2.71445157      -2.71395906       0.00000000
Si       2.71647153      -0.00037467      -2.71285879       0.00000000
Si      -2.71507059       2.71450044      -0.00010315       0.00000000
Si      -0.00130320      -2.71456560      -2.71536878       0.00000000
Si      -2.71601541      -0.00215028      -2.71392468       0.00000000
Si       2.71531494       2.71471221      -0.00006877       0.00000000
