10
Lattice="16.28999089631971 0.0 0.0 0.0 16.28999089631971 0.0 0.0 0.0 34.383488856416385" Properties=species:S:1:pos:R:3:initial_magmoms:R:1 pbc="T T T"
Si       1.35664749       1.35700587      -1.35694515       0.00000000
Si      -1.35824391      -1.35793440      -1.35673884       0.00000000
Si       1.35850455      -1.35860229       1.35883624       0.00000000
Si      -1.36026387       1.35637056       1.36041788       0.00000000
Si       2.71484253      -2.71329498      -0.00027507       0.00000000
Si       2.71425609      -0.00026064      -2.71419974       0.00000000
Si      -0.00208512       2.71467963      -2.71395906       0.00000000
Si      -2.71534752      -2.71337643       0.00048137       0.00000000
Si      -0.00143352      -2.71495656      -2.71423413       0.00000000
Si      -2.71551042       0.00034209      -2.71419974       0.00000000
