10
Lattice="16.28999089631971 0.0 0.0 0.0 16.28999089631971 0.0 0.0 0.0 34.383488856416385" Properties=species:S:1:pos:R:3:initial_magmoms:R:1 pbc="T T T"
Si      -1.35135324      -1.35079938       1.36842924       0.00000000
Si      -1.35436689       1.36091547      -1.35938638       0.00000000
Si       1.36026387      -1.35637056      -1.36041788       0.00000000
Si       1.35886293       1.37109672       1.37829730       0.00000000
Si       0.04290786      -2.66357790       2.74483545       0.00000000
Si      -2.71454931      -2.71466334      -0.00027507       0.00000000
Si       2.71396287       2.71612944      -0.00347273       0.00000000
Si      -2.71344159       0.00125433      -2.71725988       0.00000000
Si      -2.71432125       2.71681362      -0.00154726       0.00000000
Si       0.00201996      -2.71430496      -2.71715673       0.00000000
