10
Lattice="16.28999089631971 0.0 0.0 0.0 16.28999089631971 0.0 0.0 0.0 34.383488856416385" Properties=species:S:1:pos:R:3:initial_magmoms:R:1 pbc="T T T"
Si      -1.29737180       1.30549689       1.41203784       0.00000000
Si      -1.49624694      -1.11353553      -1.46836288       0.00000000
Si       1.39158628       1.24869366      -1.47283274       0.00000000
Si       1.42576270      -1.41296202       1.36984240       0.00000000
Si       0.25583771      -2.00441934      -2.95342098       0.00000000
Si      -2.60733897      -2.72409525      -0.05690814       0.00000000
Si      -3.00437514       2.28561732       0.17808594       0.00000000
Si      -2.63903931      -0.06810849       2.75494420       0.00000000
Si       0.06918363       2.65890267       2.74954599       0.00000000
Si       2.21380774      -0.35673471      -3.13187138       0.00000000
