10
Lattice="16.28999089631971 0.0 0.0 0.0 16.28999089631971 0.0 0.0 0.0 34.383488856416385" Properties=species:S:1:pos:R:3:initial_magmoms:R:1 pbc="T T T"
Si       1.06192881       1.91500353      -0.93433745       0.00000000
Si       0.40749435      -1.59656661      -1.76005739       0.00000000
Si      -2.31360354       0.48943305      -0.58032485       0.00000000
Si       0.75841353      -0.55768815       2.29850313       0.00000000
Si      -2.15032887       0.68667237      -2.91262697       0.00000000
Si      -0.20427660       2.16370296      -2.98039686       0.00000000
Si       2.30110911       1.23315300       2.79101250       0.00000000
Si      -3.56874804      -1.37782449       0.15362551       0.00000000
Si       0.43323255       3.81055680       0.46328339       0.00000000
Si      -0.32809689      -3.73041000      -1.14954383       0.00000000
