10
Lattice="16.28999089631971 0.0 0.0 0.0 16.28999089631971 0.0 0.0 0.0 34.383488856416385" Properties=species:S:1:pos:R:3:initial_magmoms:R:1 pbc="T T T"
Si      -0.36219186      -1.50254073      -1.81799361       0.00000000
Si      -1.22393286       1.66089582       1.20827086       0.00000000
Si      -0.05317056       1.53880227      -1.84333425       0.00000000
Si       1.73421711      -1.25957538       1.09755596       0.00000000
Si       0.19621305      -2.49570945       2.45472601       0.00000000
Si      -0.60030279       3.48592968      -0.63238148       0.00000000
Si      -2.12602419       0.81008541      -2.85414062       0.00000000
Si      -2.78521533       0.40086432       2.64442671       0.00000000
Si       1.63290960      -1.34267067      -3.26406080       0.00000000
Si       2.83338486       0.33172956       2.65177102       0.00000000
