10
Lattice="16.28999089631971 0.0 0.0 0.0 16.28999089631971 0.0 0.0 0.0 34.383488856416385" Properties=species:S:1:pos:R:3:initial_magmoms:R:1 pbc="T T T"
Si       1.34550513       1.36534635       1.37956606       0.00000000
Si      -1.36875096      -1.34978940       1.37392716       0.00000000
Si      -1.38072411       1.39201308      -1.36960859       0.00000000
Si       1.42299666      -1.39432626      -1.43544957       0.00000000
Si       2.42589051       0.23182299      -2.83125981       0.00000000
Si       2.71021617      -2.71091664       0.02928443       0.00000000
Si       2.69905752       2.72243367      -0.00216960       0.00000000
Si       2.70288567       0.00625536       2.73623613       0.00000000
Si      -2.72893338      -2.71748151      -0.02486959       0.00000000
Si      -2.73986397       2.70706859       0.03268840       0.00000000
