10
Lattice="16.28999089631971 0.0 0.0 0.0 16.28999089631971 0.0 0.0 0.0 34.383488856416385" Properties=species:S:1:pos:R:3:initial_magmoms:R:1 pbc="T T T"
Si       1.26395739      -1.98223236       0.12237091       0.00000000
Si      -0.60391917       0.59517144      -2.20535821       0.00000000
Si      -1.96481835      -0.89160057       1.05058809       0.00000000
Si       1.16401824       1.94173542       0.87712329       0.00000000
Si      -0.81024831       2.73538000       2.06892445       0.00000000
Si      -2.51195058       1.05552684       2.26154086       0.00000000
Si       2.62699056      -1.42021107       2.08783538       0.00000000
Si       0.47459286       2.65614381      -2.60173129       0.00000000
Si      -0.27873819      -3.77307351      -0.37013846       0.00000000
Si       0.02477709      -1.30038183      -3.60297904       0.00000000
