10
Lattice="16.28999089631971 0.0 0.0 0.0 16.28999089631971 0.0 0.0 0.0 34.383488856416385" Properties=species:S:1:pos:R:3:initial_magmoms:R:1 pbc="T T T"
Si       1.35782037       1.33380891      -1.38496771       0.00000000
Si       1.59019626      -1.17428094       1.32125506       0.00000000
Si      -1.35454608      -1.38401469      -1.38813099       0.00000000
Si      -1.29653739       1.48631589       1.55712593       0.00000000
Si      -2.70037701       2.68623729      -0.00746122       0.00000000
Si       2.72610611       2.69218314      -0.00343835       0.00000000
Si      -2.71353933      -2.71176209      -0.03259557       0.00000000
Si       0.00623907       2.69179218      -2.74521367       0.00000000
Si      -2.70774009      -0.02500515      -2.74490422       0.00000000
Si       2.72145042      -0.02490741      -2.74431970       0.00000000
