10
Lattice="16.28999089631971 0.0 0.0 0.0 16.28999089631971 0.0 0.0 0.0 34.383488856416385" Properties=species:S:1:pos:R:3:initial_magmoms:R:1 pbc="T T T"
Si      -1.74754233      -0.95126107      -1.20156607       0.00000000
Si       1.03342035       1.80250316      -1.08806611       0.00000000
Si      -0.69581106       0.13175352       2.25215416       0.00000000
Si       1.48805633      -1.89512226       0.17855356       0.00000000
Si       2.18398468       0.24932008      -2.43486812       0.00000000
Si      -2.08163394      -1.86487173       1.82889318       0.00000000
Si      -0.54371133      -2.50381440      -2.43572771       0.00000000
Si      -0.09961335      -3.34336842       1.54244417       0.00000000
Si       3.49036775      -1.09168119      -0.94977564       0.00000000
Si      -0.55677591       2.97678410      -2.40932118       0.00000000
