10
Lattice="16.28999089631971 0.0 0.0 0.0 16.28999089631971 0.0 0.0 0.0 34.383488856416385" Properties=species:S:1:pos:R:3:initial_magmoms:R:1 pbc="T T T"
Si      -0.14507874      -1.00236443       2.09436824       0.00000000
Si       2.07008433      -0.94924274      -0.55092695       0.00000000
Si      -0.19476324       2.35106077       0.09661766       0.00000000
Si      -1.99133847      -0.50731295      -1.21205304       0.00000000
Si      -2.43411696      -0.77079230       2.25641772       0.00000000
Si       1.16488161       2.77082149      -1.80320870       0.00000000
Si       1.24082559      -3.13009159      -1.16161244       0.00000000
Si      -3.55170870       0.22466191       0.41772524       0.00000000
Si       3.07825614      -1.12196723       1.61141749       0.00000000
Si       0.89161686       0.43118653       3.64468624       0.00000000
