10
Lattice="16.28999089631971 0.0 0.0 0.0 16.28999089631971 0.0 0.0 0.0 34.383488856416385" Properties=species:S:1:pos:R:3:initial_magmoms:R:1 pbc="T T T"
Si      -2.28903822       0.23157212       0.16204947       0.00000000
Si       0.14507874       1.00236443      -2.09436824       0.00000000
Si       1.58343687      -1.67427873       0.37381750       0.00000000
Si       1.03669560       1.43355095       1.55031800       0.00000000
Si       3.22333488      -0.11960281      -0.48295075       0.00000000
Si      -2.14865100       2.19232286       1.42750010       0.00000000
Si       2.21516307       0.05312169      -2.64529519       0.00000000
Si       1.09074582       0.01747428       3.41225372       0.00000000
Si       3.03280704       1.98301265       0.52108206       0.00000000
Si      -0.17363511       3.35531483       1.81524293       0.00000000
