10
Lattice="16.28999089631971 0.0 0.0 0.0 16.28999089631971 0.0 0.0 0.0 34.383488856416385" Properties=species:S:1:pos:R:3:initial_magmoms:R:1 pbc="T T T"
Si       1.28392893       1.43128827      -1.39146619       0.00000000
Si      -1.48392126       1.46417778       1.21635098       0.00000000
Si      -1.44376641      -1.35368271      -1.55293114       0.00000000
Si       0.95835699      -1.10201850       2.09973207       0.00000000
Si      -1.25577981      -1.98506682       2.39068532       0.00000000
Si      -2.10632958      -3.05222961      -0.00801136       0.00000000
Si      -2.52535725      -0.04119741       2.80823864       0.00000000
Si       2.58046632      -0.05502762      -2.94859212       0.00000000
Si      -0.11991069       2.63120967      -2.95605334       0.00000000
Si      -2.92907232       2.69470809      -0.12855994       0.00000000
