10
Lattice="16.28999089631971 0.0 0.0 0.0 16.28999089631971 0.0 0.0 0.0 34.383488856416385" Properties=species:S:1:pos:R:3:initial_magmoms:R:1 pbc="T T T"
Si      -0.98572419       0.45669015       2.11671894       0.00000000
Si      -0.57575376      -2.01114711      -1.23821889       0.00000000
Si       2.16407763      -1.08076005       0.59844496       0.00000000
Si      -1.00095534       2.11846563      -1.13754398       0.00000000
Si       0.65594943       2.31839280       2.24489378       0.00000000
Si       1.05298560      -2.69131977       2.00989969       0.00000000
Si      -0.33286986      -1.38062637       3.44354757       0.00000000
Si      -2.88295533      -1.82627190      -1.89215883       0.00000000
Si       0.91267983      -2.10121452      -3.26512669       0.00000000
Si       0.60439158       3.86006211      -0.83699774       0.00000000
