10
Lattice="16.28999089631971 0.0 0.0 0.0 16.28999089631971 0.0 0.0 0.0 34.383488856416385" Properties=species:S:1:pos:R:3:initial_magmoms:R:1 pbc="T T T"
Si       0.47838843      -1.89594423       1.30987412       0.00000000
Si       1.65005875       1.64768463       0.42384550       0.00000000
Si      -1.86039945       0.34741683       1.48574577       0.00000000
Si      -1.21727025      -1.42594515      -1.81799361       0.00000000
Si      -1.26905616      -3.24682506       0.36370875       0.00000000
Si       0.76548339      -0.65422269       3.40616784       0.00000000
Si      -3.58546158       0.59867379      -0.07509358       0.00000000
Si       2.22042704       1.08763443       2.66644105       0.00000000
Si       3.13325837       1.74192228      -1.51634709       0.00000000
Si       0.89709030       3.80040813      -0.03366145       0.00000000
