10
Lattice="16.28999089631971 0.0 0.0 0.0 16.28999089631971 0.0 0.0 0.0 34.383488856416385" Properties=species:S:1:pos:R:3:initial_magmoms:R:1 pbc="T T T"
Si      -0.76629789      -1.59628968      -1.55035238       0.00000000
Si      -2.04517692       0.60940890       1.00994678       0.00000000
Si       1.45976319      -0.74432268       1.70504378       0.00000000
Si       1.27532781       1.48902003      -1.38128867       0.00000000
Si       3.36416193       0.36445617       1.00014748       0.00000000
Si       2.49093648       2.49000795       0.36498094       0.00000000
Si      -2.78076816      -1.52443449       1.62046035       0.00000000
Si      -0.91926099      -0.26816598      -3.50030989       0.00000000
Si      -2.85760809      -2.24836209      -0.63073107       0.00000000
Si      -3.63973986       0.87838938      -0.79546246       0.00000000
