10
Lattice="16.28999089631971 0.0 0.0 0.0 16.28999089631971 0.0 0.0 0.0 34.383488856416385" Properties=species:S:1:pos:R:3:initial_magmoms:R:1 pbc="T T T"
Si       1.94945688       0.03065778      -1.31424083       0.00000000
Si      -1.22262966       2.01552912      -0.30164652       0.00000000
Si      -1.43265663      -1.92228516      -0.15630743       0.00000000
Si       0.60326757       0.44777952       2.47757244       0.00000000
Si       0.32006592       3.80637027       0.19086285       0.00000000
Si      -1.32695082      -2.79236664      -2.34774031       0.00000000
Si      -3.21773112       1.85565906       1.14442068       0.00000000
Si       3.36391758      -1.85311782      -0.87344426       0.00000000
Si      -3.73979304      -1.37469681      -0.25357837       0.00000000
Si       3.44033397       1.82887830      -0.87461329       0.00000000
