10
Lattice="16.28999089631971 0.0 0.0 0.0 16.28999089631971 0.0 0.0 0.0 34.383488856416385" Properties=species:S:1:pos:R:3:initial_magmoms:R:1 pbc="T T T"
Si       1.58091192      -0.43287417       1.64724033       0.00000000
Si       1.88191970      -0.33589980      -1.32139260       0.00000000
Si      -0.52551540       2.17901556      -0.62179136       0.00000000
Si      -1.60534692      -1.74159648      -0.30054624       0.00000000
Si       0.05155785      -1.54166931       3.08189152       0.00000000
Si      -3.32993664      -0.09075159       1.28185156       0.00000000
Si      -1.88854857       1.61699427      -2.58725583       0.00000000
Si      -1.22787504       3.12670260       1.44025639       0.00000000
Si       1.23171948      -0.36049770      -3.65273198       0.00000000
Si       3.54700808       1.47562965      -0.60924138       0.00000000
