10
Lattice="16.28999089631971 0.0 0.0 0.0 16.28999089631971 0.0 0.0 0.0 34.383488856416385" Properties=species:S:1:pos:R:3:initial_magmoms:R:1 pbc="T T T"
Si      -1.35736425      -1.35715248       1.35856117       0.00000000
Si      -1.35738054       1.35909099      -1.35667008       0.00000000
Si       1.36194174      -1.35715248      -1.35570734       0.00000000
Si       1.35865116       1.35835794       1.35838925       0.00000000
Si       0.00733050      -2.71717200      -2.70695170       0.00000000
Si      -2.71251306      -2.71458189       0.00281945       0.00000000
Si       2.71432125       2.71308321       0.00017192       0.00000000
Si      -2.71459818       2.71318095       0.00127219       0.00000000
Si      -2.71366965       0.00050499       2.71560947       0.00000000
Si       0.00136836      -2.71482624       2.71557508       0.00000000
