10
Lattice="16.28999089631971 0.0 0.0 0.0 16.28999089631971 0.0 0.0 0.0 34.383488856416385" Properties=species:S:1:pos:R:3:initial_magmoms:R:1 pbc="T T T"
Si       1.36796904       1.33180524       1.36158692       0.00000000
Si      -1.35307998       1.35817875      -1.35677323       0.00000000
Si       1.36024758      -1.35654975      -1.35677323       0.00000000
Si      -1.35509994      -1.34503272       1.38177004       0.00000000
Si       0.12173517      -2.64435570       2.70171853       0.00000000
Si      -2.71015101       2.71084076       0.00440109       0.00000000
Si      -2.71208952      -0.00016290      -2.71385591       0.00000000
Si       0.00226431       2.71489082      -2.71382153       0.00000000
Si       0.00294849      -2.71549413      -2.71389029       0.00000000
Si      -2.71396287      -2.71612944       0.00347273       0.00000000
