10
Lattice="16.28999089631971 0.0 0.0 0.0 16.28999089631971 0.0 0.0 0.0 34.383488856416385" Properties=species:S:1:pos:R:3:initial_magmoms:R:1 pbc="T T T"
Si      -1.51861896       0.12359223      -1.79966720       0.00000000
Si      -1.04475915      -0.98940573       1.87675502       0.00000000
Si       1.38582288       1.99662525       0.42326098       0.00000000
Si       1.98202059      -1.47849669      -0.28644901       0.00000000
Si       0.33409161       0.91361066      -3.03045925       0.00000000
Si       2.08163394       1.86487173      -1.82889318       0.00000000
Si       0.87071679      -0.77173875       3.28661639       0.00000000
Si       2.51185284      -1.80623520       1.97000309       0.00000000
Si      -2.31138810       2.91161663       1.10106308       0.00000000
Si      -0.09725130       3.79466495       0.81010983       0.00000000
