10
Lattice="16.28999089631971 0.0 0.0 0.0 16.28999089631971 0.0 0.0 0.0 34.383488856416385" Properties=species:S:1:pos:R:3:initial_magmoms:R:1 pbc="T T T"
Si      -1.17968922      -1.93121208       0.51331139       0.00000000
Si       2.10986451      -0.84836691       0.70259260       0.00000000
Si      -0.84492972       1.36941885       1.77996545       0.00000000
Si      -0.34595073       0.81256149      -2.27835440       0.00000000
Si       2.63059065       1.07287569       2.11056288       0.00000000
Si      -3.35914151      -1.54857627      -0.17865671       0.00000000
Si       3.43288944      -0.69662556      -1.20352593       0.00000000
Si      -1.55494566      -0.21400173       3.42356590       0.00000000
Si       0.95167809       2.70107748       2.55696396       0.00000000
Si       0.06540435      -3.86040420       0.16971700       0.00000000
