10
Lattice="16.28999089631971 0.0 0.0 0.0 16.28999089631971 0.0 0.0 0.0 34.383488856416385" Properties=species:S:1:pos:R:3:initial_magmoms:R:1 pbc="T T T"
Si       1.34498059       1.34183988      -1.36911347       0.00000000
Si      -1.36655543      -1.35340578      -1.33750815       0.00000000
Si      -1.36049178       1.35325917       1.35495090       0.00000000
Si       1.35407041      -1.36052451       1.35660131       0.00000000
Si      -0.25138891       2.42440812      -2.75929371       0.00000000
Si      -0.06918363      -2.65890267      -2.74954599       0.00000000
Si       2.71226545      -0.00226431       2.71268687       0.00000000
Si      -0.00276441       2.71210581       2.71299632       0.00000000
Si      -2.71405476       2.71236645      -0.00130657       0.00000000
Si       2.71496959       2.71166598      -0.00281945       0.00000000
