10
Lattice="16.28999089631971 0.0 0.0 0.0 16.28999089631971 0.0 0.0 0.0 34.383488856416385" Properties=species:S:1:pos:R:3:initial_magmoms:R:1 pbc="T T T"
Si      -1.34132026      -1.36510200       1.35608556       0.00000000
Si       1.36015373      -1.35268902      -1.36124308       0.00000000
Si      -1.35550885       1.36230012      -1.36131185       0.00000000
Si       1.39757838       1.35648459       1.36358116       0.00000000
Si      -2.59402126       0.07449417       2.69717991       0.00000000
Si       0.10620280      -2.58717780       2.81944766       0.00000000
Si      -2.71095088      -2.71225242      -0.00264753       0.00000000
Si       2.71374033      -2.70958086      -0.00034384       0.00000000
Si       0.00152321      -2.71135647      -2.71836015       0.00000000
Si      -2.71280794       0.00335574      -2.71842892       0.00000000
