10
Lattice="16.28999089631971 0.0 0.0 0.0 16.28999089631971 0.0 0.0 0.0 34.383488856416385" Properties=species:S:1:pos:R:3:initial_magmoms:R:1 pbc="T T T"
Si       1.90780938      -0.98600112       0.84813799       0.00000000
Si      -1.88191970       0.33589980       1.32139260       0.00000000
Si      -0.65020022      -0.02459790      -2.33133938       0.00000000
Si       1.66508838       1.81152945       0.71215122       0.00000000
Si      -0.30100778      -0.09697437       2.96863293       0.00000000
Si      -2.40743510       2.51491536       0.69960124       0.00000000
Si       0.02686058       3.60052983       0.30463788       0.00000000
Si       2.96944497      -2.19235707      -0.83789171       0.00000000
Si      -3.48726662      -1.40569668       1.02084635       0.00000000
Si      -1.93137614       1.98751032      -2.74198162       0.00000000
