10
Lattice="16.28999089631971 0.0 0.0 0.0 16.28999089631971 0.0 0.0 0.0 34.383488856416385" Properties=species:S:1:pos:R:3:initial_magmoms:R:1 pbc="T T T"
Si       0.97867062      -2.11598955       0.14107553       0.00000000
Si      -0.39413655       0.51720750      -2.26817688       0.00000000
Si      -1.81589517       0.03461625       1.56623756       0.00000000
Si       1.95317100       0.92828565       1.03965413       0.00000000
Si      -1.57317417      -2.76291432       1.70222433       0.00000000
Si       1.75966209       3.19650525       0.42037277       0.00000000
Si       3.18775752      -1.82193876      -0.74130843       0.00000000
Si       3.73690971       0.53789580      -0.49436608       0.00000000
Si      -0.65997306       0.60755184       3.72576255       0.00000000
Si      -0.52222482      -1.37028222      -3.61989573       0.00000000
