10
Lattice="16.28999089631971 0.0 0.0 0.0 16.28999089631971 0.0 0.0 0.0 34.383488856416385" Properties=species:S:1:pos:R:3:initial_magmoms:R:1 pbc="T T T"
Si      -1.35745130      -1.35630540       1.35701391       0.00000000
Si       1.35711334      -1.35783666      -1.35708268       0.00000000
Si      -1.35746759       1.35793440      -1.35728898       0.00000000
Si       1.35999178       1.35861858       1.35701391       0.00000000
Si      -0.00179750       2.71265967      -2.71550632       0.00000000
Si      -2.71475039      -2.71524978      -0.00010315       0.00000000
Si       2.71541427      -2.71507059       0.00055014       0.00000000
Si      -2.71543457       2.71513517      -0.00003438       0.00000000
Si       2.71556088       2.71504033      -0.00037822       0.00000000
Si      -2.71769888       0.00024435       2.71378714       0.00000000
