10
Lattice="16.28999089631971 0.0 0.0 0.0 16.28999089631971 0.0 0.0 0.0 34.383488856416385" Properties=species:S:1:pos:R:3:initial_magmoms:R:1 pbc="T T T"
Si       1.35933534      -1.35793440      -1.35591364       0.00000000
Si       1.35705474       1.35808101       1.35966144       0.00000000
Si      -1.35839867      -1.35749457       1.35990213       0.00000000
Si      -1.36127059       1.36588392      -1.35770158       0.00000000
Si      -2.70230642      -0.02749752      -2.70851615       0.00000000
Si       2.70756090       0.00819387      -2.71582952       0.00000000
Si       2.71336014      -2.71643895       0.00306013       0.00000000
Si      -2.71730951       2.71300176       0.00147849       0.00000000
Si       2.71643895       2.71461979       0.00257876       0.00000000
Si       2.71430496       0.00021177       2.71688166       0.00000000
