10
Lattice="16.28999089631971 0.0 0.0 0.0 16.28999089631971 0.0 0.0 0.0 34.383488856416385" Properties=species:S:1:pos:R:3:initial_magmoms:R:1 pbc="T T T"
Si      -1.32072315      -1.35969372       1.36523157       0.00000000
Si       1.35575154      -1.35268902      -1.36151815       0.00000000
Si      -1.35636730       1.36104579      -1.35966144       0.00000000
Si       1.34254035       1.36140417       1.38445195       0.00000000
Si      -2.59961864       0.01005093       2.74703599       0.00000000
Si       2.70668124      -2.71013472       0.00044699       0.00000000
Si       2.71278999       2.71564692       0.00278506       0.00000000
Si      -0.00094482      -2.71264338      -2.71612522       0.00000000
Si       2.71345788       0.00229689      -2.71677851       0.00000000
Si      -2.71635909       0.00242721      -2.71667536       0.00000000
