10
Lattice="16.290000149 0.0 0.0 0.0 16.290000149 0.0 0.0 0.0 29.1751946751" Properties=species:S:1:pos:R:3:initial_magmoms:R:1 pbc="T T T"
Si      -1.34350147      -1.37850868       1.31329221       0.00000000
Si       1.30455208      -1.34618932      -1.43156845       0.00000000
Si       1.22841262       1.43362427       1.42707547       0.00000000
Si      -1.40050018       1.34106775      -1.36026428       0.00000000
Si       0.20357613      -2.70166394       2.49763007       0.00000000
Si       2.64143981       2.71676477       0.04481310       0.00000000
Si      -2.70853832      -0.00834048       2.65669323       0.00000000
Si      -0.29271501       2.75072943       2.62401701       0.00000000
Si       2.65955429       0.00848709      -2.76595433       0.00000000
Si      -0.06535548       2.70471017      -2.72968956       0.00000000
