10
Lattice="16.290000149 0.0 0.0 0.0 16.290000149 0.0 0.0 0.0 29.1751946751" Properties=species:S:1:pos:R:3:initial_magmoms:R:1 pbc="T T T"
Si      -1.37044513       1.38697948       1.31110407       0.00000000
Si      -1.35944938      -1.34610787      -1.36779148       0.00000000
Si       1.35386191       1.34687350      -1.37491022       0.00000000
Si       1.34734591      -1.33405327       1.40671119       0.00000000
Si       0.01342296       2.73724131       2.65033303       0.00000000
Si       2.67180437      -2.72820687       0.04239156       0.00000000
Si      -2.69459408      -2.70975030       0.00163381       0.00000000
Si      -0.06568128      -2.61719378       2.78897356       0.00000000
Si      -0.00902466      -2.69578325      -2.74063026       0.00000000
Si       2.72807004       2.71125875      -0.04399619       0.00000000
