10
Lattice="16.290000149 0.0 0.0 0.0 16.290000149 0.0 0.0 0.0 29.1751946751" Properties=species:S:1:pos:R:3:initial_magmoms:R:1 pbc="T T T"
Si       1.32831268      -1.36045936       1.37421002       0.00000000
Si      -1.37004440      -1.36932112      -1.32487477       0.00000000
Si      -1.36580900       1.35119035       1.34958616       0.00000000
Si       1.36794625       1.36505314      -1.34401369       0.00000000
Si      -2.69518704       0.01436778      -2.68473059       0.00000000
Si       0.00991084      -2.71762489      -2.66579589       0.00000000
Si       2.68398278       0.00746082       2.71189270       0.00000000
Si      -0.02360910       2.71228502       2.70381117       0.00000000
Si       2.72705354       0.00957852      -2.69809283       0.00000000
Si       2.71255544      -2.71565380       0.04002837       0.00000000
