10
Lattice="16.290000149 0.0 0.0 0.0 16.290000149 0.0 0.0 0.0 29.1751946751" Properties=species:S:1:pos:R:3:initial_magmoms:R:1 pbc="T T T"
Si       1.22274370      -1.53422479       1.24190051       0.00000000
Si      -1.38898315      -1.35151615      -1.29237360       0.00000000
Si      -1.05419107       1.45925821       1.48606772       0.00000000
Si       1.37715661       1.31805649      -1.35580047       0.00000000
Si      -2.33048000       0.06123411       2.86587937       0.00000000
Si       0.75696373       2.21711789       2.86847597       0.00000000
Si      -2.49054554       2.80662042       0.19013474       0.00000000
Si      -0.01378134       2.60035643      -2.72064525       0.00000000
Si      -0.02689479      -2.70036074      -2.62448381       0.00000000
Si      -2.74418085       0.00726534      -2.59408326       0.00000000
