10
Lattice="16.290000149 0.0 0.0 0.0 16.290000149 0.0 0.0 0.0 29.1751946751" Properties=species:S:1:pos:R:3:initial_magmoms:R:1 pbc="T T T"
Si      -1.34289874       1.35772264      -1.36925024       0.00000000
Si       1.32724894      -1.34884459      -1.39603307       0.00000000
Si       1.34817019       1.37819917       1.35180347       0.00000000
Si      -1.34477209      -1.37140624       1.36271499       0.00000000
Si       2.66607029      -2.70785414      -0.03288044       0.00000000
Si      -2.68708439       2.72271062      -0.01846790       0.00000000
Si      -2.71005329      -2.71103069      -0.00986122       0.00000000
Si      -2.72668539      -0.02712285       2.69960994       0.00000000
Si       2.71891505       0.03598461       2.70891683       0.00000000
Si       2.70790301       2.72836325      -0.00242154       0.00000000
