10
Lattice="16.290000149 0.0 0.0 0.0 16.290000149 0.0 0.0 0.0 29.1751946751" Properties=species:S:1:pos:R:3:initial_magmoms:R:1 pbc="T T T"
H       -0.99947296      -1.12821283       0.20807749       0.00000000
Si       1.42358637      -0.99279406      -1.53309813       0.00000000
Si       1.18292931      -0.18417474       2.00086403       0.00000000
Si      -1.25079508       1.62766423      -1.18956021       0.00000000
H       -1.52449966       0.40775499       2.00462763       0.00000000
Si       0.02935458      -2.24600006       2.57917473       0.00000000
Si      -1.98597908      -0.87664636       2.66480393       0.00000000
Si      -2.54686007      -0.05056416      -2.36190706       0.00000000
H        2.08559243      -2.50349609      -1.31238778       0.00000000
Si       0.02806767      -2.53032572      -2.64834912       0.00000000
