10
Lattice="16.290000149 0.0 0.0 0.0 16.290000149 0.0 0.0 0.0 29.1751946751" Properties=species:S:1:pos:R:3:initial_magmoms:R:1 pbc="T T T"
Si       1.35581671       1.34022718      -1.31554162       0.00000000
Si       1.43327566      -1.31976694       1.28277496       0.00000000
Si      -1.33612210       1.44122518       1.28916433       0.00000000
Si      -1.30466611      -1.29507130      -1.47562883       0.00000000
Si      -0.05041755       2.70423776      -2.56956151       0.00000000
Si       0.05312169      -2.63751392       2.64630686       0.00000000
Si      -2.67201614      -2.64531683      -0.12527829       0.00000000
Si      -2.69998607       0.07962552       2.61870712       0.00000000
Si       2.77980708      -2.59893920      -0.17782281       0.00000000
Si       2.76843666       0.08465913       2.62139124       0.00000000
