10
Lattice="16.290000149 0.0 0.0 0.0 16.290000149 0.0 0.0 0.0 29.1751946751" Properties=species:S:1:pos:R:3:initial_magmoms:R:1 pbc="T T T"
Si      -0.92740600       1.04404240      -1.83380686       0.00000000
Si       1.07079058       1.75992275       1.06445698       0.00000000
Si       1.33276636      -1.54691470      -1.15761337       0.00000000
Si      -1.93855889      -1.02794788       0.90259300       0.00000000
H        0.51219018      -1.28186011       2.39630461       0.00000000
Si       0.69100552      -2.66949608       1.78607624       0.00000000
Si      -1.69979636      -1.00116712      -2.71364321       0.00000000
Si      -0.47829069      -2.87337521      -1.76215258       0.00000000
Si      -2.22410630       2.54373239      -0.51132446       0.00000000
Si      -1.20914155      -3.21804392       0.50015036       0.00000000
