10
Lattice="16.290000149 0.0 0.0 0.0 16.290000149 0.0 0.0 0.0 29.1751946751" Properties=species:S:1:pos:R:3:initial_magmoms:R:1 pbc="T T T"
Si       1.36515088       1.35540946       1.34690204       0.00000000
Si       1.36984240      -1.36344043      -1.33642814       0.00000000
Si      -1.34845363      -1.34744365       1.37838207       0.00000000
Si      -1.34825815       1.36068742      -1.36551581       0.00000000
Si      -0.00977400       2.71999019       2.67907060       0.00000000
Si       2.71526609      -0.02150280       2.68913604       0.00000000
Si       2.72140742       0.01213605      -2.68318430       0.00000000
Si      -2.69635340      -2.70923879       0.02768726       0.00000000
Si       0.02298519      -2.72033228      -2.69888056       0.00000000
Si      -2.70835913       0.00628794      -2.71909897       0.00000000
