10
Lattice="16.290000149 0.0 0.0 0.0 16.290000149 0.0 0.0 0.0 29.1751946751" Properties=species:S:1:pos:R:3:initial_magmoms:R:1 pbc="T T T"
Si       1.43610849      -1.21103119       1.39075236       0.00000000
Si      -1.47854720       1.24258492       1.33832453       0.00000000
Si      -1.35016066      -1.42043914      -1.31941900       0.00000000
Si       1.37213766       1.42159573      -1.30098028       0.00000000
H        0.57897756       1.26941455       2.67428587       0.00000000
H       -1.17866459      -1.48858021       3.06225761       0.00000000
Si       2.57552884      -2.64258011      -0.08527909       0.00000000
Si      -0.03696690      -2.44019315       2.77006803       0.00000000
Si      -0.08302850       2.78011659       2.45357552       0.00000000
Si       2.57166811       0.02117700      -2.77966667       0.00000000
