10
Lattice="16.290000149 0.0 0.0 0.0 16.290000149 0.0 0.0 0.0 29.1751946751" Properties=species:S:1:pos:R:3:initial_magmoms:R:1 pbc="T T T"
Si      -1.43610849       1.21103119      -1.39075236       0.00000000
Si       1.13942035      -1.43154892      -1.47603145       0.00000000
Si      -1.47307539      -1.22916196       1.37931568       0.00000000
Si       1.54926046       1.28617696       1.28954360       0.00000000
H        0.04658940      -2.67058262       0.74685581       0.00000000
H       -0.85713094       2.48044574       1.28353351       0.00000000
H       -2.61477308      -0.27754902       1.67150525       0.00000000
H        2.05159520      -2.34331652      -0.68296213       0.00000000
Si      -0.18583632      -1.05267610       3.40103997       0.00000000
Si      -0.06397083       2.63262692      -2.69173264       0.00000000
