10
Lattice="16.290000149 0.0 0.0 0.0 16.290000149 0.0 0.0 0.0 29.1751946751" Properties=species:S:1:pos:R:3:initial_magmoms:R:1 pbc="T T T"
Si       0.61897114       0.51145713      -2.18177941       0.00000000
Si      -2.30114171      -0.05945850       0.45382015       0.00000000
Si       0.77239036       2.04520952       0.87983635       0.00000000
Si       1.22150566      -1.87220809       0.95149062       0.00000000
Si       1.69979636       1.00116712       2.71364321       0.00000000
Si       3.03256272      -0.54574758       1.55602983       0.00000000
Si       1.30636027      -1.53636530      -2.94911620       0.00000000
Si      -0.23876253      -0.02678076       3.61623620       0.00000000
Si      -2.44279955       0.35399799       2.81269299       0.00000000
Si      -3.16680861       2.01821699      -0.33849061       0.00000000
