10
Lattice="16.290000149 0.0 0.0 0.0 16.290000149 0.0 0.0 0.0 29.1751946751" Properties=species:S:1:pos:R:3:initial_magmoms:R:1 pbc="T T T"
Si       1.37891593       1.34004799       1.33021383       0.00000000
Si       1.37863900      -1.36570474      -1.31218356       0.00000000
Si      -1.35418771      -1.35127180       1.36213149       0.00000000
Si      -1.35011521       1.37691226      -1.34223401       0.00000000
Si      -0.05387103       2.66308922       2.61138415       0.00000000
Si       0.00045612      -2.70117524      -2.65666405       0.00000000
Si      -2.71526609       0.02150280      -2.68913604       0.00000000
Si       2.73531909      -0.01013238      -2.66958866       0.00000000
Si       0.00847080      -2.67744071       2.74287675       0.00000000
Si       0.01037673       2.73929385      -2.68610182       0.00000000
