10
Lattice="16.290000149 0.0 0.0 0.0 16.290000149 0.0 0.0 0.0 29.1751946751" Properties=species:S:1:pos:R:3:initial_magmoms:R:1 pbc="T T T"
Si      -1.31088889       0.45796077      -0.60938229       0.00000000
H        0.57163240      -0.11785815      -2.33456990       0.00000000
Si       1.75962953      -0.63408826      -1.53975007       0.00000000
Si       1.06303654      -2.49347774      -0.11862634       0.00000000
Si      -2.57088782       0.70393978       1.32893012       0.00000000
Si       0.43965081      -2.15950016       2.21107130       0.00000000
Si      -2.28113759      -1.53909550      -1.48711802       0.00000000
Si      -1.34182360      -0.61599007       2.84224747       0.00000000
Si      -1.03884589       2.48787398      -1.80664476       0.00000000
Si       3.05569452       1.04414014      -0.36740323       0.00000000
