10
Lattice="16.290000149 0.0 0.0 0.0 16.290000149 0.0 0.0 0.0 29.1751946751" Properties=species:S:1:pos:R:3:initial_magmoms:R:1 pbc="T T T"
H       -1.14169769       0.95161294       0.29218957       0.00000000
H        1.51966479      -1.44142066      -0.63245987       0.00000000
Si       1.47307539       1.22916196      -1.37931568       0.00000000
Si       1.28723907       0.17648586       2.02172429       0.00000000
Si      -1.32279884      -1.69051106      -1.14535979       0.00000000
H       -2.28839967      -0.83297287       2.22901405       0.00000000
Si       2.12462653      -2.75258160      -0.19305226       0.00000000
Si       0.03696690       2.44019315      -2.77006803       0.00000000
Si      -2.61159328      -0.33948360      -2.64703624       0.00000000
H        0.61594445       3.70960770      -0.09578216       0.00000000
