10
Lattice="16.290000149 0.0 0.0 0.0 16.290000149 0.0 0.0 0.0 29.1751946751" Properties=species:S:1:pos:R:3:initial_magmoms:R:1 pbc="T T T"
Si       1.43180956      -1.22593654      -1.28540073       0.00000000
Si      -1.22274370       1.53422479      -1.24190051       0.00000000
Si       1.48548511       1.01226061       1.47156764       0.00000000
Si      -1.11259072      -1.44813214       1.54914449       0.00000000
H        2.07563924      -2.06751053      -0.20551007       0.00000000
Si      -1.97398964       0.31863240       2.84735312       0.00000000
Si      -0.12079035       1.80076178       2.99626332       0.00000000
Si       2.46498653      -0.84659131       2.36785880       0.00000000
Si      -0.00819387      -2.55593360      -2.49491677       0.00000000
Si       0.70244110      -2.33364026       2.70045602       0.00000000
