10
Lattice="16.290000149 0.0 0.0 0.0 16.290000149 0.0 0.0 0.0 29.1751946751" Properties=species:S:1:pos:R:3:initial_magmoms:R:1 pbc="T T T"
Si       1.39488013       1.37549503       1.30652357       0.00000000
Si      -1.32527296       1.31880583      -1.43865802       0.00000000
Si       1.39349548      -1.34776945      -1.34833162       0.00000000
Si      -1.34765542      -1.38131056       1.36108118       0.00000000
Si       2.65636145      -0.04106709       2.65999002       0.00000000
Si      -2.68361462      -2.67001247      -0.06993294       0.00000000
H       -1.10656342       2.95492458       2.15161226       0.00000000
Si       0.08143371       2.43869447       2.94643209       0.00000000
Si       0.04945644      -2.67431303      -2.75571384       0.00000000
Si       2.74142784       2.69531084      -0.11226615       0.00000000
