10
Lattice="16.290000149 0.0 0.0 0.0 16.290000149 0.0 0.0 0.0 29.1751946751" Properties=species:S:1:pos:R:3:initial_magmoms:R:1 pbc="T T T"
Si      -1.42661305       1.37218816      -1.24680194       0.00000000
Si      -1.29715642      -1.24594066       1.49875893       0.00000000
Si       1.17960778      -1.45220464      -1.41202107       0.00000000
Si       1.84999016       0.93393829       1.11233347       0.00000000
Si       3.44904915      -0.84543472       1.02273645       0.00000000
Si      -0.05154156       2.69254154      -2.61126745       0.00000000
Si       2.57054573      -2.73450458      -0.04717629       0.00000000
Si       2.56196090      -0.11512143      -2.75069570       0.00000000
Si      -2.78365152      -0.00936675      -2.59752593       0.00000000
Si       0.13919805      -2.59330286       2.79469190       0.00000000
