10
Lattice="16.290000149 0.0 0.0 0.0 16.290000149 0.0 0.0 0.0 29.1751946751" Properties=species:S:1:pos:R:3:initial_magmoms:R:1 pbc="T T T"
Si       0.85165750      -1.87507676      -1.11277110       0.00000000
Si       1.48732588       1.25068105       1.37499775       0.00000000
Si      -1.38963475       1.31628088      -1.42876763       0.00000000
Si      -1.31155678      -1.36671472       1.48665122       0.00000000
H        1.38258118      -1.62165322      -2.50116026       0.00000000
H        2.64710873       0.13999626      -2.08205859       0.00000000
Si       0.00521280       2.54890170       2.71451846       0.00000000
H       -0.20083941      -0.74956807      -3.66554228       0.00000000
Si      -2.79854058       2.49375467       0.04174970       0.00000000
Si       2.54128889      -2.80637607       0.19591143       0.00000000
