10
Lattice="16.290000149 0.0 0.0 0.0 16.290000149 0.0 0.0 0.0 29.1751946751" Properties=species:S:1:pos:R:3:initial_magmoms:R:1 pbc="T T T"
Si       1.91726786      -1.06105893       0.77935698       0.00000000
Si      -1.25449291      -1.31834808      -1.47051734       0.00000000
Si       1.16133040       1.44072182      -1.50319356       0.00000000
Si      -0.97484248       0.40759372       2.15027020       0.00000000
H       -1.88136470       1.96262085       0.64319634       0.00000000
Si       0.05693355       2.54852328       2.54086770       0.00000000
Si      -2.60218091      -2.60532325      -0.09820371       0.00000000
Si       3.66363732      -0.73775782      -0.71318763       0.00000000
Si       2.68245803       0.12361667      -2.70013509       0.00000000
Si       2.60133383       2.77071888      -0.29367751       0.00000000
