10
Lattice="16.290000149 0.0 0.0 0.0 16.290000149 0.0 0.0 0.0 29.1751946751" Properties=species:S:1:pos:R:3:initial_magmoms:R:1 pbc="T T T"
H        1.31088889      -0.45796077       0.60938229       0.00000000
Si      -1.25999893       0.24597900       1.93831241       0.00000000
Si       0.27204300       2.02991321      -1.19726246       0.00000000
Si      -0.97024870      -1.99705628      -0.87773573       0.00000000
H        1.88252129      -0.57581893      -1.72518761       0.00000000
Si       3.07051842      -1.09204903      -0.93036778       0.00000000
H       -0.88492168      -2.81963613       1.69671262       0.00000000
Si      -1.92305081       2.75224440      -0.73083863       0.00000000
Si      -3.32228037      -0.44812161       1.03536931       0.00000000
H        1.07883784       0.16840602      -3.38172599       0.00000000
