10
Lattice="16.290000149 0.0 0.0 0.0 16.290000149 0.0 0.0 0.0 29.1751946751" Properties=species:S:1:pos:R:3:initial_magmoms:R:1 pbc="T T T"
Si       1.49524282      -1.26226324      -1.28335846       0.00000000
Si      -1.33876108       1.41975496      -1.36697457       0.00000000
Si      -1.38728899      -1.82130347       0.75464559       0.00000000
Si       1.05691150       1.69212377       1.39002298       0.00000000
H        2.96513841       0.02883330       1.65586735       0.00000000
Si      -2.46497024       2.53465886       0.38680473       0.00000000
Si       0.06854832      -2.53405613      -2.68548914       0.00000000
Si      -0.60626494       3.38037051       1.63950006       0.00000000
Si       2.78403726      -2.61329069       0.21831798       0.00000000
Si      -3.14261796      -0.84949093       2.01778564       0.00000000
