10
Lattice="16.290000149 0.0 0.0 0.0 16.290000149 0.0 0.0 0.0 29.1751946751" Properties=species:S:1:pos:R:3:initial_magmoms:R:1 pbc="T T T"
Si      -1.26365115       1.42954525       1.32415706       0.00000000
Si       1.63471455      -1.18307755       1.21246624       0.00000000
Si       0.68148890       1.76450024      -1.50579015       0.00000000
Si      -1.33330719      -1.97801327      -0.48751750       0.00000000
Si       0.29860873      -2.59016378       2.56425746       0.00000000
Si       0.17308614       0.84932803      -3.60039407       0.00000000
Si      -2.58377647       0.10290393       2.69004047       0.00000000
Si      -0.40161692      -2.79391584      -2.48199216       0.00000000
Si       0.24406004       2.81336448       2.49179794       0.00000000
Si      -2.40297376       2.93070135      -0.06080111       0.00000000
