10
Lattice="16.290000149 0.0 0.0 0.0 16.290000149 0.0 0.0 0.0 29.1751946751" Properties=species:S:1:pos:R:3:initial_magmoms:R:1 pbc="T T T"
Si      -1.32988694       1.40890582      -1.31110407       0.00000000
Si       1.33494205       1.37704258       1.34515153       0.00000000
Si       1.35039964      -1.32669019      -1.40676954       0.00000000
Si      -1.38511004      -1.33154461       1.36796653       0.00000000
Si      -2.72017329       0.06393825      -2.58646270       0.00000000
Si       2.64448213      -2.67962357       0.02523654       0.00000000
Si       2.67802324       0.01914075       2.70868342       0.00000000
Si       2.66601751       2.73466749      -0.03810280       0.00000000
Si      -0.05332108       2.73807210       2.66839248       0.00000000
Si      -2.75364924      -2.68045436       0.03002128       0.00000000
