10
Lattice="16.290000149 0.0 0.0 0.0 16.290000149 0.0 0.0 0.0 29.1751946751" Properties=species:S:1:pos:R:3:initial_magmoms:R:1 pbc="T T T"
Si       2.22974264      -0.51539931       0.32609115       0.00000000
Si      -1.05366979       0.66561104       2.07030099       0.00000000
Si      -0.06045219       2.06145065      -1.29251947       0.00000000
Si      -0.64840717      -1.76844242      -1.58736399       0.00000000
Si      -2.36701847       1.97805074      -0.93036778       0.00000000
H       -0.64746235      -2.89774668       1.54418470       0.00000000
Si       2.78827788      -1.55253475      -1.68308781       0.00000000
Si      -3.12137580       1.39106339       1.22384107       0.00000000
Si       3.47374479       1.26904966      -0.51794723       0.00000000
Si       1.16481646      -3.23793075      -1.75369178       0.00000000
