10
Lattice="16.290000149 0.0 0.0 0.0 16.290000149 0.0 0.0 0.0 29.1751946751" Properties=species:S:1:pos:R:3:initial_magmoms:R:1 pbc="T T T"
Si       1.35181426       1.35281935       1.36134376       0.00000000
Si       1.38826313      -1.36102951      -1.32324095       0.00000000
Si      -1.33840270      -1.35707104       1.38080361       0.00000000
Si      -1.34516305       1.38074041      -1.35475016       0.00000000
Si      -2.68892516       2.71169858       0.03203436       0.00000000
Si       0.05332108      -2.73807210      -2.66839248       0.00000000
Si      -2.70153362       0.03108132      -2.70915023       0.00000000
Si       2.71060715       2.70461243      -0.00122536       0.00000000
Si       2.69063561      -0.00619020       2.72449638       0.00000000
Si      -2.69726564      -2.72244998       0.04983123       0.00000000
