10
Lattice="16.290000149 0.0 0.0 0.0 16.290000149 0.0 0.0 0.0 29.1751946751" Properties=species:S:1:pos:R:3:initial_magmoms:R:1 pbc="T T T"
Si       1.34610787      -1.34485354       1.36551581       0.00000000
Si      -1.35407368       1.32913369       1.40113872       0.00000000
Si      -1.42195411      -1.45986094      -1.22501099       0.00000000
Si       1.46031706       1.43687885      -1.21475591       0.00000000
Si      -0.99588916       0.92597248      -3.42165516       0.00000000
Si       0.04333140       2.77978753      -2.46927178       0.00000000
Si      -2.82818838      -0.09585036      -2.47903088       0.00000000
Si       2.68983740      -2.64800468      -0.05852544       0.00000000
Si      -0.08361657      -2.61381197      -2.78185773       0.00000000
Si      -0.00933417      -2.71542899       2.71192187       0.00000000
