10
Lattice="16.290000149 0.0 0.0 0.0 16.290000149 0.0 0.0 0.0 29.1751946751" Properties=species:S:1:pos:R:3:initial_magmoms:R:1 pbc="T T T"
Si       1.34789977       1.36179514       1.35069481       0.00000000
Si      -1.34308119       1.35790183      -1.36353190       0.00000000
Si       1.35910729      -1.35547462      -1.35407914       0.00000000
Si      -1.36794625      -1.36505314       1.34401369       0.00000000
Si      -0.03354111      -2.69876432      -2.68344688       0.00000000
Si       2.69112431      -0.02166570       2.69371655       0.00000000
Si      -2.67802324      -0.01914075      -2.70868342       0.00000000
Si      -0.04070871       2.71274114       2.68420544       0.00000000
Si       2.69635340       2.70923879      -0.02768726       0.00000000
Si       2.68900661      -2.72565911       0.01829285       0.00000000
