10
Lattice="16.290000149 0.0 0.0 0.0 16.290000149 0.0 0.0 0.0 29.1751946751" Properties=species:S:1:pos:R:3:initial_magmoms:R:1 pbc="T T T"
Si       1.36920709      -1.34809525       1.34141710       0.00000000
Si       1.37966527       1.34356663      -1.33529031       0.00000000
Si      -1.35057133       1.37663533       1.34871090       0.00000000
Si      -1.38015397      -1.34443000      -1.35673408       0.00000000
Si      -0.05432715       2.68999705      -2.59702995       0.00000000
Si      -0.00576666      -2.69058674       2.68359276       0.00000000
Si      -2.72758133       0.02132361       2.68085029       0.00000000
Si       2.72440478      -2.70099605      -0.02450716       0.00000000
Si       2.72663651       0.01482390       2.69940571       0.00000000
Si      -0.04403187      -2.78565519      -2.64589840       0.00000000
