10
Lattice="16.290000149 0.0 0.0 0.0 16.290000149 0.0 0.0 0.0 29.1751946751" Properties=species:S:1:pos:R:3:initial_magmoms:R:1 pbc="T T T"
Si       0.92740600      -1.04404240       1.83380686       0.00000000
Si      -0.77239036      -2.04520952      -0.87983635       0.00000000
Si      -1.29670030       1.49968999       1.32248240       0.00000000
Si       1.99238105       0.59943943      -1.17080056       0.00000000
H       -0.25964631       2.68141547      -1.44072946       0.00000000
Si      -0.15341922      -1.53375238      -3.06161575       0.00000000
Si       2.26017236      -2.59095710       0.67619349       0.00000000
Si      -1.01115289      -2.07199028       2.73639986       0.00000000
Si       1.99819658       0.71588035       2.89826384       0.00000000
Si       0.29711331       2.31361985       2.88353037       0.00000000
