10
Lattice="16.290000149 0.0 0.0 0.0 16.290000149 0.0 0.0 0.0 29.1751946751" Properties=species:S:1:pos:R:3:initial_magmoms:R:1 pbc="T T T"
H       -1.13450077       0.05556519       1.00149691       0.00000000
Si       0.22908627      -2.13524435      -0.90761113       0.00000000
Si       2.06228144       0.69410062       0.90294310       0.00000000
Si      -0.22423185       1.51497001      -1.83681191       0.00000000
H       -0.45309006       0.98306893       2.62544659       0.00000000
H       -2.03651066       1.85515409       1.46106457       0.00000000
Si       2.35203167      -1.54893466      -1.91310504       0.00000000
H        2.43735869      -2.37151451       0.66134331       0.00000000
Si       3.32228037       0.44812161      -1.03536931       0.00000000
Si       1.72875998       2.81603604       1.83471129       0.00000000
