10
Lattice="16.290000149 0.0 0.0 0.0 16.290000149 0.0 0.0 0.0 29.1751946751" Properties=species:S:1:pos:R:3:initial_magmoms:R:1 pbc="T T T"
Si      -2.05438079       0.61069907      -0.89363621       0.00000000
Si       1.02855061      -1.62006332      -1.31985663       0.00000000
Si      -0.52264836      -1.25541167       1.93166046       0.00000000
Si       1.51497001       1.85001622       0.06847418       0.00000000
Si       2.32130873      -0.18340308      -2.60003500       0.00000000
Si      -3.29838294      -1.17374990      -0.04959783       0.00000000
Si       2.55443492      -2.61606651       0.18517496       0.00000000
Si       0.77610448       3.17375792      -1.72203669       0.00000000
Si      -2.13923540       0.27485629       3.00697061       0.00000000
Si       0.89138881       2.92285934       2.11578512       0.00000000
