10
Lattice="16.290000149 0.0 0.0 0.0 16.290000149 0.0 0.0 0.0 29.1751946751" Properties=species:S:1:pos:R:3:initial_magmoms:R:1 pbc="T T T"
Si      -0.97950142       1.85885192      -0.89629116       0.00000000
Si      -1.76254544      -1.48704895       0.33259722       0.00000000
Si       0.38325483       0.64614286       2.22341241       0.00000000
Si       1.75532897      -0.97181254      -1.26314005       0.00000000
H       -0.38934729      -1.22091922      -2.57336887       0.00000000
Si       1.87061330      -1.22271112       2.57468175       0.00000000
Si       2.49419450      -2.29555424       0.52737082       0.00000000
Si      -2.46498653       0.84659131      -2.36785880       0.00000000
Si      -3.57757725      -0.60154084      -0.81871431       0.00000000
Si      -1.07515630      -3.53487139      -0.43473958       0.00000000
