10
Lattice="16.290000149 0.0 0.0 0.0 16.290000149 0.0 0.0 0.0 29.1751946751" Properties=species:S:1:pos:R:3:initial_magmoms:R:1 pbc="T T T"
Si      -1.35526285      -1.34389243       1.37590218       0.00000000
Si       1.33480261       1.35132067       1.39428255       0.00000000
Si      -1.37650501       1.34716672      -1.35947655       0.00000000
Si       1.36277254      -1.37362168      -1.34970286       0.00000000
Si       2.71440272      -2.69244380       0.05823369       0.00000000
Si       2.69866658       2.71292033       0.06473976       0.00000000
Si      -2.71536383      -2.69829191       0.02231902       0.00000000
Si      -0.02322954       2.74502793      -2.67962201       0.00000000
Si       2.73012257      -0.02337615      -2.70005340       0.00000000
Si      -2.72829809       2.71645526      -0.00075856       0.00000000
