10
Lattice="16.290000149 0.0 0.0 0.0 16.290000149 0.0 0.0 0.0 29.1751946751" Properties=species:S:1:pos:R:3:initial_magmoms:R:1 pbc="T T T"
Si       1.34625448       1.33307587       1.38913897       0.00000000
Si       1.33051834      -1.44010117      -1.31448548       0.00000000
Si      -1.34154667      -1.41794677       1.36037222       0.00000000
Si      -1.42719949       1.36726858      -1.33419332       0.00000000
H        0.48726648       1.65192005      -3.21391902       0.00000000
Si      -2.76553704       2.52121961       0.22265342       0.00000000
Si       2.64924272       2.68648166      -0.04545787       0.00000000
Si      -2.73549828      -0.07944633      -2.70396580       0.00000000
Si      -0.06558354      -2.76136680      -2.67940028       0.00000000
Si       2.69459408      -0.05172075       2.75109540       0.00000000
