10
Lattice="16.290000149 0.0 0.0 0.0 16.290000149 0.0 0.0 0.0 29.1751946751" Properties=species:S:1:pos:R:3:initial_magmoms:R:1 pbc="T T T"
Si       1.36386397       1.36159966      -1.32954280       0.00000000
Si      -1.35008263       1.36516717       1.35562542       0.00000000
Si       1.38383551      -1.33810948       1.35016966       0.00000000
Si      -1.33480261      -1.35132067      -1.39428255       0.00000000
Si       2.69998607      -0.07962552      -2.61870712       0.00000000
Si      -2.69006546      -2.69521310      -0.01838037       0.00000000
Si      -0.02088378       2.71841006      -2.66906351       0.00000000
Si       0.02334357      -2.70049106       2.69403748       0.00000000
Si      -2.71875215       0.02135619       2.69838458       0.00000000
Si       0.01643661       2.72735327       2.70804157       0.00000000
