10
Lattice="16.290000149 0.0 0.0 0.0 16.290000149 0.0 0.0 0.0 29.1751946751" Properties=species:S:1:pos:R:3:initial_magmoms:R:1 pbc="T T T"
Si      -0.71700436      -0.08076582      -1.32507899       0.00000000
H       -2.11571264       0.76004254       0.30307192       0.00000000
H        1.14627844       1.63354492      -1.12581241       0.00000000
H        1.79683589       1.21050991      -1.08377096       0.00000000
Si      -1.51536097       0.84815515       1.70421065       0.00000000
Si       0.25964631      -2.68141547       1.44072946       0.00000000
Si       2.25202736      -2.08197605       0.26992890       0.00000000
Si       0.88927111      -0.86926699      -2.84977467       0.00000000
Si       0.38296161       2.34833384       2.02222027       0.00000000
Si      -1.03705399      -1.18172548       2.76321186       0.00000000
