10
Lattice="16.290000149 0.0 0.0 0.0 16.290000149 0.0 0.0 0.0 29.1751946751" Properties=species:S:1:pos:R:3:initial_magmoms:R:1 pbc="T T T"
H        0.84168802       0.93726145       0.80864887       0.00000000
Si       1.42666192      -1.44308224      -1.12508303       0.00000000
Si      -1.29435454       1.29422422      -1.42707547       0.00000000
Si      -1.83164762      -0.82450207       1.16376934       0.00000000
H        1.64537147       0.19303650       2.46518725       0.00000000
H        2.28157742       1.84865438       1.35935985       0.00000000
Si      -2.37646667       2.71581995       0.07025387       0.00000000
Si       2.78005143      -0.05154156      -2.46579993       0.00000000
Si       0.06845058      -2.75180457      -2.51256777       0.00000000
Si      -1.20739852      -1.22820085       3.31263913       0.00000000
