10
Lattice="16.290000149 0.0 0.0 0.0 16.290000149 0.0 0.0 0.0 29.1751946751" Properties=species:S:1:pos:R:3:initial_magmoms:R:1 pbc="T T T"
Si      -0.11994327       2.30465872       0.23515207       0.00000000
Si       1.60103008       0.07320726      -1.79124025       0.00000000
Si       0.28540080      -0.88630633       2.24161773       0.00000000
Si      -2.12595905      -0.96925501      -0.68124080       0.00000000
H        1.09219564      -2.74781352       0.05715421       0.00000000
H        2.53208504      -1.83642059       0.60786518       0.00000000
Si      -1.86631274       1.98135761       1.72769668       0.00000000
Si      -1.90969301      -0.16397514       2.70804157       0.00000000
Si       3.18045963      -1.01243980      -0.46931218       0.00000000
Si      -1.04384692      -2.39085074      -2.17857014       0.00000000
