10
Lattice="16.290000149 0.0 0.0 0.0 16.290000149 0.0 0.0 0.0 29.1751946751" Properties=species:S:1:pos:R:3:initial_magmoms:R:1 pbc="T T T"
Si      -1.20471067      -0.39061791      -0.86565720       0.00000000
H        1.40214547      -2.05600979       0.46429405       0.00000000
Si      -0.23659596       1.06763032      -2.47163497       0.00000000
Si       0.07732863       2.94493881      -1.01786419       0.00000000
Si       2.00438678       1.15023691       2.19566680       0.00000000
Si      -1.95774036      -2.51175512       0.29455277       0.00000000
Si      -1.44933760      -1.59658291       2.38915669       0.00000000
Si       0.60900166      -0.58878577       3.10899627       0.00000000
H        3.11805264       0.61831954      -0.73162636       0.00000000
Si      -0.65076922      -2.76664476      -1.62056536       0.00000000
