10
Lattice="16.290000149 0.0 0.0 0.0 16.290000149 0.0 0.0 0.0 29.1751946751" Properties=species:S:1:pos:R:3:initial_magmoms:R:1 pbc="T T T"
Si       1.29145492       1.43698978       1.31440087       0.00000000
Si      -1.35479044       1.36637263      -1.33736175       0.00000000
Si      -1.30795669      -1.34722700       1.42217404       0.00000000
Si       1.42511437      -1.36246955      -1.29841286       0.00000000
Si       2.53289954       0.04719213       2.68586842       0.00000000
Si      -2.65127897      -2.69252525       0.03250117       0.00000000
Si       0.06369390      -2.70516629      -2.67626978       0.00000000
Si      -2.71046054      -0.00154755      -2.67504442       0.00000000
Si       0.02029734       2.70229925      -2.69955159       0.00000000
Si       2.76025908       0.00117288      -2.66783815       0.00000000
