10
Lattice="16.290000149 0.0 0.0 0.0 16.290000149 0.0 0.0 0.0 29.1751946751" Properties=species:S:1:pos:R:3:initial_magmoms:R:1 pbc="T T T"
Si      -1.36717084       1.35726652      -1.32782146       0.00000000
Si       1.34848621       1.36202320       1.34806905       0.00000000
Si      -1.37634211      -1.32976900       1.35556707       0.00000000
Si       1.37492488      -1.36458073      -1.33216856       0.00000000
Si       2.67116906      -0.07840377       2.62144959       0.00000000
Si       0.00149868       2.70107750      -2.67058062       0.00000000
Si       0.00977400      -2.71999019      -2.67907060       0.00000000
Si      -2.70731657      -0.00568521      -2.69289964       0.00000000
Si      -2.68545539       2.71972955       0.06328100       0.00000000
Si       2.73541682      -0.00219915      -2.67603638       0.00000000
