10
Lattice="16.290000149 0.0 0.0 0.0 16.290000149 0.0 0.0 0.0 29.1751946751" Properties=species:S:1:pos:R:3:initial_magmoms:R:1 pbc="T T T"
Si      -1.31548267       1.32302657       1.40069818       0.00000000
Si       0.98912881       1.78675401      -1.15283739       0.00000000
Si       1.38280924      -1.32454946       1.36545454       0.00000000
Si      -1.29782431      -1.28364501      -1.50583391       0.00000000
Si      -2.51841773       2.72018730      -0.04049809       0.00000000
Si       1.07220781       1.09426610      -3.38267418       0.00000000
Si      -2.63334368      -2.64827999      -0.09762604       0.00000000
Si      -0.64407403       3.52206256      -1.23621485       0.00000000
Si       0.11303631       2.72704539       2.64305382       0.00000000
Si       0.03285693      -2.71946729       2.67610932       0.00000000
