10
Lattice="16.290000149 0.0 0.0 0.0 16.290000149 0.0 0.0 0.0 29.1751946751" Properties=species:S:1:pos:R:3:initial_magmoms:R:1 pbc="T T T"
Si      -1.31194774      -1.36014985      -1.34535867       0.00000000
Si       1.31696506      -1.39150810       1.34165050       0.00000000
Si      -1.41902191       1.33064866       1.30211811       0.00000000
Si       1.30932505       1.28938609      -1.47031019       0.00000000
Si      -0.04551426       2.65727369       2.66576671       0.00000000
Si       2.69547374      -0.02754639       2.64651108       0.00000000
Si       2.68117112       2.69584841      -0.15836296       0.00000000
Si       2.64417653      -2.75043621      -0.02453634       0.00000000
Si      -2.77058694      -0.04492782       2.64887427       0.00000000
Si      -2.77065210       2.64947078      -0.10581843       0.00000000
