10
Lattice="16.290000149 0.0 0.0 0.0 16.290000149 0.0 0.0 0.0 29.1751946751" Properties=species:S:1:pos:R:3:initial_magmoms:R:1 pbc="T T T"
Si       1.81503182      -0.88550812       1.15131153       0.00000000
Si      -0.86139892       1.76676455       1.29820864       0.00000000
Si       1.11259072       1.44813214      -1.54914449       0.00000000
Si      -1.03177603      -2.14092956      -0.39059751       0.00000000
H       -1.93829825      -0.58590244      -1.89767136       0.00000000
Si       2.59807583       2.46039275      -0.07757684       0.00000000
Si      -0.05693355      -2.54852328      -2.54086770       0.00000000
Si      -1.97074793       0.62125174       2.99460033       0.00000000
H        3.18822996      -0.61937839      -1.75465456       0.00000000
Si       0.99180037       3.24889392       1.44711883       0.00000000
