10
Lattice="16.290000149 0.0 0.0 0.0 16.290000149 0.0 0.0 0.0 29.1751946751" Properties=species:S:1:pos:R:3:initial_magmoms:R:1 pbc="T T T"
Si       1.37274202       1.38430792       1.30894511       0.00000000
Si       1.37140624      -1.33966844      -1.36536994       0.00000000
Si      -1.32351364       1.36484137      -1.39238617       0.00000000
Si      -1.36643779      -1.35893462       1.37776939       0.00000000
Si      -2.67278177      -2.67305870      -0.06867841       0.00000000
Si       2.67615380       0.00215028       2.68251327       0.00000000
Si      -2.68438025       2.71614575      -0.03953239       0.00000000
Si       2.70340697      -2.70686045       0.00595174       0.00000000
Si      -2.69089625       0.03521898       2.74208902       0.00000000
Si       0.04909806       2.75476935       2.68251327       0.00000000
