10
Lattice="16.290000149 0.0 0.0 0.0 16.290000149 0.0 0.0 0.0 29.1751946751" Properties=species:S:1:pos:R:3:initial_magmoms:R:1 pbc="T T T"
Si      -1.37850868      -1.36396171      -1.30486058       0.00000000
Si      -1.38531790       1.31442382       1.35833871       0.00000000
Si       1.32913369      -1.36669843       1.37601888       0.00000000
Si       1.32486571       1.38683287      -1.38296258       0.00000000
Si      -2.69547374       0.02754639      -2.64651108       0.00000000
Si      -0.01430262       2.67597461       2.68516822       0.00000000
Si      -0.05129721      -2.72288981      -2.67104742       0.00000000
Si       2.68799663      -0.00131949       2.70699126       0.00000000
Si       2.74983348       0.02658528      -2.65330890       0.00000000
Si       2.69461037      -2.71386515       0.02576170       0.00000000
