10
Lattice="16.290000149 0.0 0.0 0.0 16.290000149 0.0 0.0 0.0 29.1751946751" Properties=species:S:1:pos:R:3:initial_magmoms:R:1 pbc="T T T"
Si      -1.37863900       1.36570474       1.31218356       0.00000000
Si      -1.37818288      -1.33547050      -1.34448050       0.00000000
Si       1.35668008       1.35557236      -1.35740511       0.00000000
Si       1.35413884      -1.35184195       1.36904601       0.00000000
Si       0.00027693       2.70575273       2.64239738       0.00000000
Si      -0.00705357      -2.68121999      -2.68274668       0.00000000
Si      -2.73282672       0.01443294       2.67431504       0.00000000
Si       2.71500545      -2.70314633       0.01619223       0.00000000
Si       0.00100998       2.72596863      -2.69648819       0.00000000
Si      -2.72785826      -2.70039332       0.01204936       0.00000000
