10
Lattice="16.290000149 0.0 0.0 0.0 16.290000149 0.0 0.0 0.0 29.1751946751" Properties=species:S:1:pos:R:3:initial_magmoms:R:1 pbc="T T T"
Si      -1.34403904      -1.32654358      -1.40738222       0.00000000
Si      -1.39349548       1.34776945       1.34833162       0.00000000
Si       1.35601219       1.34793235      -1.39250287       0.00000000
Si       1.39125251      -1.35632170       1.35057811       0.00000000
Si      -2.68434767      -2.67506237      -0.03480601       0.00000000
Si       0.00138465       2.72326448       2.65485519       0.00000000
Si       2.66276017      -2.71726976      -0.07474685       0.00000000
Si      -2.71876844       2.66657528      -0.09032640       0.00000000
Si       2.74141317       0.06411744       2.66999712       0.00000000
Si      -2.74115090      -0.03354111       2.70941280       0.00000000
