10
Lattice="16.290000149 0.0 0.0 0.0 16.290000149 0.0 0.0 0.0 29.1751946751" Properties=species:S:1:pos:R:3:initial_magmoms:R:1 pbc="T T T"
Si       1.38531790      -1.31442382      -1.35833871       0.00000000
Si       1.37101528       1.36155079       1.32682950       0.00000000
Si      -1.35567010       1.37039626      -1.33908309       0.00000000
Si      -1.35668008      -1.35557236       1.35740511       0.00000000
Si       0.00680922      -2.67838553      -2.66319930       0.00000000
Si      -0.00736308       2.70879896       2.64814489       0.00000000
Si       0.02448387       2.68814324      -2.70261498       0.00000000
Si       2.71445159      -2.68112225       0.01768017       0.00000000
Si      -2.73531909       0.01013238       2.66958866       0.00000000
Si      -2.73486297      -2.69104286       0.01292461       0.00000000
