10
Lattice="16.290000149 0.0 0.0 0.0 16.290000149 0.0 0.0 0.0 29.1751946751" Properties=species:S:1:pos:R:3:initial_magmoms:R:1 pbc="T T T"
Si       1.36086661      -1.35130438      -1.35285378       0.00000000
Si       1.37420812       1.36438525       1.33091403       0.00000000
Si      -1.35413884       1.35184195      -1.36904601       0.00000000
Si      -1.35386191      -1.34687350       1.37491022       0.00000000
Si       0.00053757       2.72302013       2.65161674       0.00000000
Si       2.68438025      -2.71614575       0.03953239       0.00000000
Si      -2.71331129      -2.69298137       0.00711875       0.00000000
Si      -2.72430704       0.04010598       2.68601430       0.00000000
Si       0.00140094      -2.69519681      -2.71612310       0.00000000
Si       2.71699283       0.02629206      -2.70877095       0.00000000
