10
Lattice="16.290000149 0.0 0.0 0.0 16.290000149 0.0 0.0 0.0 29.1751946751" Properties=species:S:1:pos:R:3:initial_magmoms:R:1 pbc="T T T"
Si       1.32012532       1.32664132      -1.36588342       0.00000000
Si      -1.25796268       1.40056534       1.36496732       0.00000000
Si      -1.72507844      -0.94068235      -1.27529852       0.00000000
Si       1.45041613      -1.38510613       1.22600878       0.00000000
Si      -3.43007130       0.72786979      -1.14901544       0.00000000
Si      -2.57243537       2.66419694      -0.10824872       0.00000000
Si      -2.59051727      -2.66884285       0.10678121       0.00000000
Si       2.58377647      -0.10290393      -2.69004047       0.00000000
Si      -2.66880701      -0.00394218       2.62258742       0.00000000
Si       2.81261025       0.00993690       2.54466048       0.00000000
