10
Lattice="16.290000149 0.0 0.0 0.0 16.290000149 0.0 0.0 0.0 29.1751946751" Properties=species:S:1:pos:R:3:initial_magmoms:R:1 pbc="T T T"
Si      -0.66200606       1.51070203      -0.22071035       0.00000000
Si       1.08546787       0.30115323       1.26643685       0.00000000
Si      -2.05752476      -0.02682963      -1.33596134       0.00000000
Si       2.40639140      -1.19426878       0.00601009       0.00000000
Si       0.85713094      -2.48044574      -1.28353351       0.00000000
Si      -0.57897756      -1.26941455      -2.67428587       0.00000000
Si       0.11735316      -1.15709500       2.87241462       0.00000000
H       -1.75764215      -2.75799477       0.38797174       0.00000000
Si       0.77330260       2.92058526      -1.43121835       0.00000000
Si      -2.08559243       2.50349609       1.31238778       0.00000000
