10
Lattice="16.290000149 0.0 0.0 0.0 16.290000149 0.0 0.0 0.0 29.1751946751" Properties=species:S:1:pos:R:3:initial_magmoms:R:1 pbc="T T T"
Si      -0.62424910       0.40369878      -2.14886979       0.00000000
Si       1.48546882      -1.80009389       0.11579635       0.00000000
Si       0.97024870       1.99705628       0.87773573       0.00000000
Si      -2.12294540      -0.58630969       1.00549391       0.00000000
H        0.08532702      -0.82257985       2.57444835       0.00000000
H        0.73588447      -1.24561486       2.61648981       0.00000000
H        2.28113759       1.53909550       1.48711802       0.00000000
H        2.85276999       1.42123735      -0.84745188       0.00000000
Si      -2.35203167       1.54893466       1.91310504       0.00000000
Si      -0.17168031      -3.32539176       0.85048610       0.00000000
