10
Lattice="16.290000149 0.0 0.0 0.0 16.290000149 0.0 0.0 0.0 29.1751946751" Properties=species:S:1:pos:R:3:initial_magmoms:R:1 pbc="T T T"
Si       1.33882136      -1.35900955       1.36315262       0.00000000
Si      -1.35181426      -1.35281935      -1.36134376       0.00000000
Si      -1.32724894       1.34884459       1.39603307       0.00000000
Si       1.35879290       1.35179308      -1.36256912       0.00000000
Si       2.68976736       0.02770929       2.68589760       0.00000000
Si      -2.67014768       2.70656723       0.02678283       0.00000000
Si       0.03644888      -2.71384886      -2.68458471       0.00000000
Si      -2.69021696      -2.70989039       0.01945985       0.00000000
Si      -2.69697731       0.02792106      -2.71609392       0.00000000
Si       2.69893863       2.71474481       0.00250907       0.00000000
