10
Lattice="16.290000149 0.0 0.0 0.0 16.290000149 0.0 0.0 0.0 29.1751946751" Properties=species:S:1:pos:R:3:initial_magmoms:R:1 pbc="T T T"
H        1.35573526       0.57925612       0.27698930       0.00000000
Si      -0.47187243       0.41712174      -2.20786203       0.00000000
Si      -0.47311047      -2.19429560       0.61991454       0.00000000
Si      -1.37472940       1.33477003       1.32449549       0.00000000
H        2.25774515      -1.22033278      -0.18257837       0.00000000
H        2.93915586      -0.29282904       1.44137132       0.00000000
Si       0.60988132      -2.13829058       2.71510197       0.00000000
Si       1.35479044       1.70856038      -2.85455940       0.00000000
Si       0.16693992       2.64510506       2.51376395       0.00000000
Si      -2.77516605      -2.05343597       1.21295872       0.00000000
