10
Lattice="16.290000149 0.0 0.0 0.0 16.290000149 0.0 0.0 0.0 29.1751946751" Properties=species:S:1:pos:R:3:initial_magmoms:R:1 pbc="T T T"
Si      -1.36866952      -1.34381098       1.34275916       0.00000000
Si      -1.38228796       1.34571691      -1.33610722       0.00000000
Si       1.35008263      -1.36516717      -1.35562542       0.00000000
Si       1.36651924       1.36218610       1.35241615       0.00000000
Si       0.00522909       2.70498710      -2.64012172       0.00000000
Si      -0.00149868      -2.70107750       2.67058062       0.00000000
Si       2.71394660      -0.00356751      -2.68516822       0.00000000
Si      -2.70881525      -2.70676271      -0.02231902       0.00000000
Si      -2.70013268       2.71617833       0.05292380       0.00000000
Si      -2.68695407       0.01865205       2.73386162       0.00000000
