10
Lattice="16.290000149 0.0 0.0 0.0 16.290000149 0.0 0.0 0.0 29.1751946751" Properties=species:S:1:pos:R:3:initial_magmoms:R:1 pbc="T T T"
Si      -1.22906422       1.31992984      -1.51331735       0.00000000
Si       1.34315938       1.45389880       1.29141082       0.00000000
Si      -1.61730379      -1.03089637       1.39311555       0.00000000
Si       1.78147442      -1.54351009      -0.63117616       0.00000000
H       -0.85398697      -1.74568529      -1.75491713       0.00000000
H       -0.20342952      -2.16872030      -1.71287568       0.00000000
H        1.34182360       0.61599007      -2.84224747       0.00000000
Si      -0.05075964      -2.31138812       2.51814023       0.00000000
Si       0.03093471       1.07395084      -3.45162976       0.00000000
Si       1.02174139      -3.41865201       0.64949818       0.00000000
