10
Lattice="16.290000149 0.0 0.0 0.0 16.290000149 0.0 0.0 0.0 29.1751946751" Properties=species:S:1:pos:R:3:initial_magmoms:R:1 pbc="T T T"
Si      -1.39264840      -1.34328970      -1.32936775       0.00000000
Si      -1.35910729       1.35547462       1.35407914       0.00000000
Si       1.32989932      -1.37018449       1.37237198       0.00000000
Si       1.36023130       1.34438113      -1.37248868       0.00000000
Si      -0.03645702      -2.73850215      -2.61853207       0.00000000
Si       2.70708851       2.70127298      -0.01003627       0.00000000
Si      -2.70218848       2.71337645      -0.00945276       0.00000000
Si       2.68985369      -2.72754713       0.03293879       0.00000000
Si       2.70329294      -0.02288745       2.71539372       0.00000000
Si      -0.01120752       2.71726976       2.70477395       0.00000000
