10
Lattice="16.290000149 0.0 0.0 0.0 16.290000149 0.0 0.0 0.0 29.1751946751" Properties=species:S:1:pos:R:3:initial_magmoms:R:1 pbc="T T T"
Si      -1.33882136       1.35900955      -1.36315262       0.00000000
Si       1.35094600       1.38671884       1.32274498       0.00000000
Si       1.38860848      -1.35094600      -1.33351062       0.00000000
Si      -1.35084663      -1.36550926       1.36361942       0.00000000
Si       2.65983122      -0.04106709       2.62034093       0.00000000
Si      -2.66607029       2.70785414       0.03288044       0.00000000
Si       0.04070871      -2.71274114      -2.68420544       0.00000000
Si      -2.69063561       0.00619020      -2.72449638       0.00000000
Si      -2.69304653      -2.72660393       0.00939441       0.00000000
Si       0.01997154       2.71080263      -2.72572174       0.00000000
