10
Lattice="16.290000149 0.0 0.0 0.0 16.290000149 0.0 0.0 0.0 29.1751946751" Properties=species:S:1:pos:R:3:initial_magmoms:R:1 pbc="T T T"
Si      -1.34598081       1.36083729      -1.35550872       0.00000000
Si       1.35666379       1.36280838       1.35031554       0.00000000
Si      -1.37559440      -1.34869798       1.35016966       0.00000000
Si       1.31784472      -1.37046142      -1.38903102       0.00000000
Si       0.01317861      -2.69752628       2.68093781       0.00000000
Si      -2.66010082      -0.02305035      -2.71941990       0.00000000
Si       2.70536177      -0.01119123      -2.69304552       0.00000000
Si      -0.02757897       2.71800281       2.68449719       0.00000000
Si      -2.69005551      -2.71472852      -0.04393784       0.00000000
Si       2.70013268      -2.71617833      -0.05292380       0.00000000
