10
Lattice="10.86 0.0 0.0 0.0 10.86 0.0 0.0 0.0 10.86" Properties=species:S:1:pos:R:3:initial_magmoms:R:1 pbc="T T T"
Si       0.51419928      -0.46605690      -2.10793686       0.00000000
Si      -2.20080072      -0.46605690       0.60706314       0.00000000
Si       0.51419928       2.24894310       0.60706314       0.00000000
Si       1.87169928      -1.82355690      -0.75043686       0.00000000
Si      -0.84330072      -1.82355690       1.96456314       0.00000000
Si       1.87169928       0.89144310       1.96456314       0.00000000
Si       0.51419928      -3.18105690       0.60706314       0.00000000
Si       3.22919928      -0.46605690       0.60706314       0.00000000
Si       0.51419928      -0.46605690       3.32206314       0.00000000
Si       1.97691096       0.64792932      -3.09597966       0.00000000
