10
Lattice="10.86 0.0 0.0 0.0 10.86 0.0 0.0 0.0 10.86" Properties=species:S:1:pos:R:3:initial_magmoms:R:1 pbc="T T T"
Si       1.15454832      -1.10078046      -1.55241528       0.00000000
Si      -1.56045168      -1.10078046       1.16258472       0.00000000
Si       1.15454832       1.61421954       1.16258472       0.00000000
Si       2.51204832      -2.45828046      -0.19491528       0.00000000
Si      -0.20295168      -2.45828046       2.52008472       0.00000000
Si       2.51204832       0.25671954       2.52008472       0.00000000
Si      -0.09774000      -2.70179424      -2.54045808       0.00000000
Si       2.51204832       0.25671954      -2.90991528       0.00000000
Si      -2.91795168       0.25671954       2.52008472       0.00000000
Si       2.51204832       2.97171954      -0.19491528       0.00000000
