10
Lattice="16.28999089631971 0.0 0.0 0.0 16.28999089631971 0.0 0.0 0.0 34.26581377546328" Properties=species:S:1:pos:R:3:initial_magmoms:R:1 pbc="T T T"
Si       1.35307998       1.35444182      -1.39773759       0.00000000
Si      -1.35751086      -1.36557097      -1.39705227       0.00000000
Si      -1.52979390       1.40515259       1.43155797       0.00000000
Si       1.50796530      -1.30120187       1.56169960       0.00000000
Si       2.69421939       2.71828949      -0.02086789       0.00000000
Si      -2.69796609      -2.72524925      -0.01319235       0.00000000
Si       2.70839169      -2.71804907      -0.02045670       0.00000000
Si      -2.73064383       2.70274883      -0.06099318       0.00000000
Si      -0.00115659       2.70770099      -2.76055830       0.00000000
Si       2.71590138      -0.00623418      -2.75911913       0.00000000
