10
Lattice="16.28999089631971 0.0 0.0 0.0 16.28999089631971 0.0 0.0 0.0 34.26581377546328" Properties=species:S:1:pos:R:3:initial_magmoms:R:1 pbc="T T T"
Si      -1.76801886      -1.32309009       0.81967299       0.00000000
Si      -1.17661041       1.90982331       0.79493306       0.00000000
Si       0.43515477      -0.23729643      -2.33312630       0.00000000
Si       1.81692144      -0.48575151       1.50468126       0.00000000
Si      -0.91132776       1.50881238       3.17246788       0.00000000
Si      -0.83520459      -3.42163305       1.17771668       0.00000000
Si       0.93079431       0.09686034       3.60956284       0.00000000
Si       2.72958498      -0.55071603      -2.62356350       0.00000000
Si      -3.44048221      -1.39279500      -0.93950061       0.00000000
Si      -2.37268737      -0.34994178       2.99736947       0.00000000
