10
Lattice="16.28999089631971 0.0 0.0 0.0 16.28999089631971 0.0 0.0 0.0 34.26581377546328" Properties=species:S:1:pos:R:3:initial_magmoms:R:1 pbc="T T T"
Si       2.02009032      -0.58056925      -1.09900806       0.00000000
Si      -1.10377782      -2.14814831      -0.03961130       0.00000000
Si      -1.10086191       1.42810032      -1.63156763       0.00000000
Si       0.86990229       0.80404182       2.14761249       0.00000000
Si       2.78720271       1.59732084       0.52687145       0.00000000
Si      -1.25154441      -0.38369629      -3.16362729       0.00000000
Si       1.02263733      -0.81756482      -3.20995470       0.00000000
Si      -2.57398290      -1.90291865      -1.92697338       0.00000000
Si      -2.26597158      -2.19595946       2.12180004       0.00000000
Si      -3.39942978       1.78879350      -1.35120459       0.00000000
