10
Lattice="16.28999089631971 0.0 0.0 0.0 16.28999089631971 0.0 0.0 0.0 34.26581377546328" Properties=species:S:1:pos:R:3:initial_magmoms:R:1 pbc="T T T"
Si      -1.69816734      -1.14867306      -1.11806843       0.00000000
Si       1.22117985      -1.36462959       1.50774119       0.00000000
Si       1.39471722       1.25491644      -1.50006020       0.00000000
Si      -1.49727906       1.34791605       1.49498745       0.00000000
Si      -0.58349151       1.64721222      -2.99771696       0.00000000
Si       2.53141713       2.68431507       0.09962106       0.00000000
Si       2.70962973      -2.65727856       0.09785979       0.00000000
Si       2.57096925      -0.00669519       2.88738643       0.00000000
Si      -0.14892318       2.71182888       2.88913398       0.00000000
Si      -0.14405247      -2.72389325       2.88927105       0.00000000
