10
Lattice="16.28999089631971 0.0 0.0 0.0 16.28999089631971 0.0 0.0 0.0 34.26581377546328" Properties=species:S:1:pos:R:3:initial_magmoms:R:1 pbc="T T T"
Si       1.35725022       1.33915203      -1.35739300       0.00000000
Si      -1.35431802       1.35436689       1.35987385       0.00000000
Si       1.35974259      -1.36028016       1.35833188       0.00000000
Si      -1.34835588      -1.36391283      -1.39414653       0.00000000
Si      -2.70970141       2.70650205      -0.00054825       0.00000000
Si       0.00316026       2.71176372       2.71642391       0.00000000
Si      -2.71210255      -0.00285075       2.71635537       0.00000000
Si      -2.70985942      -2.71919196      -0.00541400       0.00000000
Si       2.71969695       2.71205694      -0.00020559       0.00000000
Si       0.00319284      -2.71792134       2.71597845       0.00000000
