10
Lattice="16.28999089631971 0.0 0.0 0.0 16.28999089631971 0.0 0.0 0.0 34.26581377546328" Properties=species:S:1:pos:R:3:initial_magmoms:R:1 pbc="T T T"
Si       1.35711990      -1.35731538       1.35723538       0.00000000
Si       1.35654975       1.35764118      -1.35764657       0.00000000
Si      -1.35765747       1.35707103       1.35720111       0.00000000
Si      -1.35835794      -1.35799956      -1.35809202       0.00000000
Si      -0.00061902      -2.71218726       2.71467635       0.00000000
Si       2.71379997      -0.00114030       2.71381970       0.00000000
Si      -2.71419745      -0.00104256       2.71453928       0.00000000
Si      -0.00057015       2.71508688       2.71375117       0.00000000
Si       2.71448415       2.71531494       0.00044546       0.00000000
Si       2.71529865      -2.71503312      -0.00034266       0.00000000
