10
Lattice="16.28999089631971 0.0 0.0 0.0 16.28999089631971 0.0 0.0 0.0 34.26581377546328" Properties=species:S:1:pos:R:3:initial_magmoms:R:1 pbc="T T T"
Si      -1.31316948       1.27452960      -1.50666867       0.00000000
Si       0.77113602       1.69486047       1.51102043       0.00000000
Si      -1.88217918      -0.90883539       1.27873235       0.00000000
Si       1.38271149      -1.43654994      -1.48367630       0.00000000
Si       2.62643670       2.67458994       0.12219196       0.00000000
Si      -2.67283062       2.65733883      -0.16927321       0.00000000
Si      -0.96073533       3.46965597       1.31299819       0.00000000
Si       0.04776228       2.62506834      -2.86613133       0.00000000
Si      -2.66644494      -0.08788455      -2.86414391       0.00000000
Si       2.65492791      -2.89289223      -0.09906252       0.00000000
