10
Lattice="16.28999089631971 0.0 0.0 0.0 16.28999089631971 0.0 0.0 0.0 34.26581377546328" Properties=species:S:1:pos:R:3:initial_magmoms:R:1 pbc="T T T"
Si      -1.55478276      -0.81068814      -1.51616031       0.00000000
Si       0.16224840       2.26264842      -0.72043914       0.00000000
Si      -1.53204192       0.53177076       1.92913213       0.00000000
Si       1.98834111      -1.53282384      -0.55445544       0.00000000
Si      -2.18789361      -2.75636574      -0.25212800       0.00000000
Si       1.70017101      -2.58714522       1.90631108       0.00000000
Si      -3.51025065       0.92406654       0.43147537       0.00000000
Si       0.91857681       2.18176857      -2.99013938       0.00000000
Si       1.86204474       3.42016695       0.31829532       0.00000000
Si      -0.66865563      -1.39329999      -3.62104189       0.00000000
