10
Lattice="16.28999089631971 0.0 0.0 0.0 16.28999089631971 0.0 0.0 0.0 34.26581377546328" Properties=species:S:1:pos:R:3:initial_magmoms:R:1 pbc="T T T"
Si       1.62113193       1.06323201       1.25883761       0.00000000
Si       1.09722924      -0.23208363      -2.06432938       0.00000000
Si      -1.16015751      -1.69108119       1.14618868       0.00000000
Si      -1.81975590       1.61717346      -0.24930248       0.00000000
Si      -2.29747644       0.24219972      -2.27239152       0.00000000
Si      -0.60256710      -1.38960216      -3.10306384       0.00000000
Si       0.23043834       2.41082226       2.57862386       0.00000000
Si      -2.48324760      -0.32441535       2.57830861       0.00000000
Si       2.74659174       2.67317271       0.03272593       0.00000000
Si       1.80048483       1.96374321      -2.76794399       0.00000000
