10
Lattice="16.28999089631971 0.0 0.0 0.0 16.28999089631971 0.0 0.0 0.0 34.26581377546328" Properties=species:S:1:pos:R:3:initial_magmoms:R:1 pbc="T T T"
Si      -1.39181760      -1.23738840      -1.36004517       0.00000000
Si      -0.91043181      -0.19779318       2.12475577       0.00000000
Si       1.43449740       1.50794901      -1.10592976       0.00000000
Si       0.95778684       0.84756870       2.94254414       0.00000000
Si      -0.02430468      -2.56852575      -2.68212381       0.00000000
Si      -2.80175457      -2.48381775       0.10639541       0.00000000
Si       2.70661608       0.13419702      -2.63761249       0.00000000
Si      -0.40593051      -2.41724052       2.92099093       0.00000000
Si      -2.74397882       0.15011235      -2.65169575       0.00000000
Si       0.00531054       2.84587929      -2.63908592       0.00000000
