10
Lattice="16.28999089631971 0.0 0.0 0.0 16.28999089631971 0.0 0.0 0.0 34.26581377546328" Properties=species:S:1:pos:R:3:initial_magmoms:R:1 pbc="T T T"
Si      -2.25064269       0.62648082       0.51693436       0.00000000
Si       0.26150337       1.97218143       1.34133603       0.00000000
Si       0.62206623      -1.48455657       1.91110830       0.00000000
Si       1.20933702      -0.05064561      -2.25414355       0.00000000
Si       2.84758974      -1.33040430       1.05456527       0.00000000
Si      -3.32845425      -1.08323613      -0.81312822       0.00000000
Si       2.45807955       2.60369586       1.01735258       0.00000000
Si      -1.59985719      -2.52444501      -2.38548449       0.00000000
Si      -2.26297422       0.63679239       3.03694651       0.00000000
Si      -0.50275827      -0.86296275      -3.73641495       0.00000000
