10
Lattice="16.28999089631971 0.0 0.0 0.0 16.28999089631971 0.0 0.0 0.0 34.26581377546328" Properties=species:S:1:pos:R:3:initial_magmoms:R:1 pbc="T T T"
Si       2.19657618       0.63151443      -0.32398345       0.00000000
Si      -1.14842871       1.91910861      -0.80284847       0.00000000
Si      -0.26150337      -1.97218143      -1.34133603       0.00000000
Si      -0.34582041      -0.60154083       2.30677587       0.00000000
Si      -2.51214606      -1.34570061      -0.82440167       0.00000000
Si      -2.52447759      -1.33538904       1.69561048       0.00000000
Si       0.36056286      -3.45673800       0.56977227       0.00000000
Si      -3.01664736       0.87374673      -1.62063683       0.00000000
Si       2.41942338       2.62326015       0.89084312       0.00000000
Si       3.58277373      -1.16413227       0.52358193       0.00000000
