10
Lattice="16.28999089631971 0.0 0.0 0.0 16.28999089631971 0.0 0.0 0.0 34.26581377546328" Properties=species:S:1:pos:R:3:initial_magmoms:R:1 pbc="T T T"
Si      -2.11423023      -0.38090907      -0.97088811       0.00000000
Si       1.59928704      -1.25291277      -1.24515184       0.00000000
Si       0.46175634       2.34562968      -0.15309974       0.00000000
Si      -0.11668527      -0.73855602       2.29735277       0.00000000
Si      -1.80460620       2.94612795       0.01843502       0.00000000
Si       3.15814230      -1.38230424       0.56672261       0.00000000
Si      -1.54756629      -2.32976322      -2.22662809       0.00000000
Si       2.27216178      -0.62530794       2.70977633       0.00000000
Si      -2.71722902       1.74019554      -1.81800803       0.00000000
Si       0.54279909      -3.27947022      -1.78100093       0.00000000
