10
Lattice="16.28999089631971 0.0 0.0 0.0 16.28999089631971 0.0 0.0 0.0 34.26581377546328" Properties=species:S:1:pos:R:3:initial_magmoms:R:1 pbc="T T T"
Si      -2.26764945      -0.69944373       0.09412824       0.00000000
Si       0.04916322       1.84891500      -1.52267082       0.00000000
Si       0.47772054       1.37497374       2.02308904       0.00000000
Si       1.69490934      -1.63180188      -0.83067232       0.00000000
Si       2.29747644      -0.24219972       2.27239152       0.00000000
Si      -2.16723789       2.32139016      -0.99319517       0.00000000
Si       3.39470568      -0.47428335       0.20806214       0.00000000
Si      -1.97758971      -2.97038376       0.32124218       0.00000000
Si      -1.41750693       0.82600074       3.42797247       0.00000000
Si       0.00061902      -3.36267954       1.81889894       0.00000000
