10
Lattice="16.28999089631971 0.0 0.0 0.0 16.28999089631971 0.0 0.0 0.0 34.26581377546328" Properties=species:S:1:pos:R:3:initial_magmoms:R:1 pbc="T T T"
Si      -1.35681039       1.35709003       1.35726964       0.00000000
Si      -1.35589815      -1.35816246      -1.35740671       0.00000000
Si       1.35791811       1.35762371      -1.35771510       0.00000000
Si       1.35812988      -1.35780408       1.35768083       0.00000000
Si       0.00236205       2.71182629      -2.71584139       0.00000000
Si      -2.71402640       2.71375177       0.00034266       0.00000000
Si       0.00133578      -2.71520091      -2.71320292       0.00000000
Si      -2.71363544       0.00063531       2.71512180       0.00000000
Si      -2.71429030      -2.71533123       0.00013706       0.00000000
Si       2.71554300      -0.00099369       2.71443649       0.00000000
