10
Lattice="16.28999089631971 0.0 0.0 0.0 16.28999089631971 0.0 0.0 0.0 34.26581377546328" Properties=species:S:1:pos:R:3:initial_magmoms:R:1 pbc="T T T"
Si      -1.35746199       1.35795069      -1.36093609       0.00000000
Si       1.35816246      -1.35641943      -1.36182700       0.00000000
Si       1.35102744       1.36168110       1.37854872       0.00000000
Si      -1.35402480      -1.35720135       1.38728651       0.00000000
Si      -2.71365336      -2.71329498      -0.00126784       0.00000000
Si       2.71301805      -2.71479366      -0.00270700       0.00000000
Si      -2.71487511       2.71415920       0.00195315       0.00000000
Si       2.71842633       2.71275741      -0.00061678       0.00000000
Si       0.00000000      -2.71419093      -2.71800013       0.00000000
Si      -2.71487511       0.00114030      -2.71769174       0.00000000
