10
Lattice="16.28999089631971 0.0 0.0 0.0 16.28999089631971 0.0 0.0 0.0 34.26581377546328" Properties=species:S:1:pos:R:3:initial_magmoms:R:1 pbc="T T T"
Si      -1.43449740      -1.50794901       1.10592976       0.00000000
Si       1.27211868      -1.37375199      -1.53168273       0.00000000
Si      -1.42918686       1.33793028      -1.53315616       0.00000000
Si       1.66638555       1.20676320       1.55981498       0.00000000
Si       2.68353315      -2.77711920      -0.10420240       0.00000000
Si      -2.74426227       2.73491395      -0.09210656       0.00000000
Si       2.77674453       2.76197766       0.04173578       0.00000000
Si       2.62614348      -0.01655064      -2.91896924       0.00000000
Si      -2.82631500      -2.74533741      -0.25411542       0.00000000
Si      -0.08873163       2.69760856      -2.91701609       0.00000000
