10
Lattice="16.28999089631971 0.0 0.0 0.0 16.28999089631971 0.0 0.0 0.0 34.26581377546328" Properties=species:S:1:pos:R:3:initial_magmoms:R:1 pbc="T T T"
Si       1.75410720       0.97919190      -1.12570114       0.00000000
Si      -1.53186273       1.75488912      -0.39916269       0.00000000
Si      -0.50666787      -2.11706795      -0.93734186       0.00000000
Si       0.13743873      -0.49788756       2.31595912       0.00000000
Si      -2.70241326      -1.26600993      -1.18350760       0.00000000
Si      -3.35207475       0.50497371       0.29636519       0.00000000
Si       2.40577236      -0.08053776       2.66235242       0.00000000
Si       0.09330912      -3.55973057       0.83303666       0.00000000
Si       0.75821805       2.02875660      -2.99003658       0.00000000
Si      -0.52541766       3.61537002       0.56685967       0.00000000
