10
Lattice="16.28999089631971 0.0 0.0 0.0 16.28999089631971 0.0 0.0 0.0 34.26581377546328" Properties=species:S:1:pos:R:3:initial_magmoms:R:1 pbc="T T T"
Si       0.87967629       0.15599956       2.17553773       0.00000000
Si       1.36163223      -0.42404729      -1.89400965       0.00000000
Si      -1.40608764       1.86978738      -0.48935036       0.00000000
Si      -0.75292380      -2.20969193       0.56720233       0.00000000
Si       2.67934662      -2.18633207      -1.06758629       0.00000000
Si       1.16411598      -3.52023872       0.15570394       0.00000000
Si       2.44144746      -1.61082266       2.33131021       0.00000000
Si       2.53506609       1.96369923       2.09494449       0.00000000
Si      -3.49726752       1.08714247      -1.17867612       0.00000000
Si      -0.08840583      -1.20663518      -3.70961907       0.00000000
