10
Lattice="16.28999089631971 0.0 0.0 0.0 16.28999089631971 0.0 0.0 0.0 34.26581377546328" Properties=species:S:1:pos:R:3:initial_magmoms:R:1 pbc="T T T"
Si       1.35694071      -1.35526284       1.36419134       0.00000000
Si      -1.36018242       1.36098063       1.36371162       0.00000000
Si       1.37239992       1.34179101      -1.37222325       0.00000000
Si      -1.35027810      -1.36839258      -1.39069596       0.00000000
Si       0.02671560       2.73250089      -2.67210105       0.00000000
Si       2.71104696      -2.71094922       0.00798394       0.00000000
Si      -2.71502172      -2.71282257       0.00301539       0.00000000
Si       2.71327869       2.71624347      -0.00023986       0.00000000
Si      -2.71521720       2.71775844       0.00455736       0.00000000
Si      -0.00146610      -2.71264338       2.72053581       0.00000000
