10
Lattice="16.28999089631971 0.0 0.0 0.0 16.28999089631971 0.0 0.0 0.0 34.26581377546328" Properties=species:S:1:pos:R:3:initial_magmoms:R:1 pbc="T T T"
Si      -1.00644507      -1.86048090      -0.96602236       0.00000000
Si      -1.56892248       1.72224396       0.36369755       0.00000000
Si       1.85083722       1.06376958      -1.09578707       0.00000000
Si       1.06930818      -0.70156143       2.04244924       0.00000000
Si       1.55921364       2.98352979       0.26970637       0.00000000
Si       3.28119696      -0.75888594      -0.74062171       0.00000000
Si      -1.34130231       1.84120983       2.76247718       0.00000000
Si      -0.59064282       3.54481803      -0.71125589       0.00000000
Si       0.52541766      -3.61537002      -0.56685967       0.00000000
Si      -1.04612751      -1.45764549      -3.28009686       0.00000000
