10
Lattice="16.28999089631971 0.0 0.0 0.0 16.28999089631971 0.0 0.0 0.0 34.26581377546328" Properties=species:S:1:pos:R:3:initial_magmoms:R:1 pbc="T T T"
Si       0.75113190      -1.68534711      -1.41730338       0.00000000
Si      -2.24417556       0.62623647       0.23598879       0.00000000
Si       1.15758369       1.72634904      -1.12395359       0.00000000
Si       0.01482390      -0.57674745       2.39363976       0.00000000
Si      -2.18312064       0.37685286       2.60581380       0.00000000
Si       3.01946553      -1.26799731      -1.07091008       0.00000000
Si      -3.08144898      -1.15631307      -1.11833399       0.00000000
Si       2.15671455       0.31926771       2.80613186       0.00000000
Si       0.93344958       3.47956029       0.33131634       0.00000000
Si       3.47936481      -0.88690905       1.22490073       0.00000000
