10
Lattice="16.28999089631971 0.0 0.0 0.0 16.28999089631971 0.0 0.0 0.0 34.26581377546328" Properties=species:S:1:pos:R:3:initial_magmoms:R:1 pbc="T T T"
Si      -0.93281427       2.09854296      -0.35804369       0.00000000
Si      -1.89398943      -1.37599091       0.10752618       0.00000000
Si       1.35330804      -1.00609388      -1.64589075       0.00000000
Si       0.98220555      -0.23898082       2.16381882       0.00000000
Si       1.27782018      -3.06572003      -0.46464469       0.00000000
Si      -3.15591220      -0.38729508       1.88465508       0.00000000
Si      -1.00484865      -3.56717510      -0.03155883       0.00000000
Si       0.83520459       3.42163305      -1.17771668       0.00000000
Si      -0.34023294      -1.75820318       3.40047273       0.00000000
Si      -1.53748278       3.07169127       1.81965279       0.00000000
