10
Lattice="16.28999089631971 0.0 0.0 0.0 16.28999089631971 0.0 0.0 0.0 34.26581377546328" Properties=species:S:1:pos:R:3:initial_magmoms:R:1 pbc="T T T"
Si       0.94133394       1.74713508      -1.32135905       0.00000000
Si      -1.17499770       1.37099898       1.56581150       0.00000000
Si      -1.79198145      -1.02884382      -1.23867559       0.00000000
Si       1.70847891      -1.85785821       0.41585015       0.00000000
Si       2.22720138       0.37879137      -2.70347142       0.00000000
Si      -0.48757599      -2.34898542      -2.68726368       0.00000000
Si       3.37729167      -0.95524560      -1.15948725       0.00000000
Si      -1.60722027      -0.19969911       3.39286571       0.00000000
Si       1.85673420      -1.39150809       3.09255995       0.00000000
Si       0.73120923      -3.64910661      -1.06943665       0.00000000
