10
Lattice="16.28999089631971 0.0 0.0 0.0 16.28999089631971 0.0 0.0 0.0 34.26581377546328" Properties=species:S:1:pos:R:3:initial_magmoms:R:1 pbc="T T T"
Si      -0.65348964      -0.58016835      -2.25400653       0.00000000
Si      -2.07037755      -0.74383398       1.07828203       0.00000000
Si       0.51720750       1.45158561      -1.92717901       0.00000000
Si       1.76252913      -1.73749140       0.06344662       0.00000000
Si       0.70157772       2.10896856       1.15658974       0.00000000
Si       1.98202059       0.72171216       2.60081236       0.00000000
Si      -0.75362427      -1.99984185       2.60934455       0.00000000
Si       0.63706932      -3.34743210       1.28955830       0.00000000
Si       3.40566885      -0.56606121       1.18121316       0.00000000
Si       0.81642222      -2.44692090      -2.73722331       0.00000000
