10
Lattice="16.28999089631971 0.0 0.0 0.0 16.28999089631971 0.0 0.0 0.0 34.26581377546328" Properties=species:S:1:pos:R:3:initial_magmoms:R:1 pbc="T T T"
Si       1.28044287      -1.38725640       1.44422262       0.00000000
Si      -1.44749682       1.29943442       1.43383322       0.00000000
Si      -0.70157772      -2.10896856      -1.15658974       0.00000000
Si       1.09108791       1.89983658      -1.52206915       0.00000000
Si      -0.18437022      -0.65738295      -3.08376875       0.00000000
Si       2.70409113      -2.67502977       0.02462343       0.00000000
Si      -1.51739721       1.35307234      -3.22806217       0.00000000
Si      -2.66758524       2.73768341       0.01855838       0.00000000
Si       2.61887814      -0.04163724       2.80935284       0.00000000
Si      -0.08933436       2.67289156       2.81082627       0.00000000
