10
Lattice="16.28999089631971 0.0 0.0 0.0 16.28999089631971 0.0 0.0 0.0 34.26581377546328" Properties=species:S:1:pos:R:3:initial_magmoms:R:1 pbc="T T T"
Si       1.28586744      -1.36834371      -1.38211237       0.00000000
Si      -0.94133394      -1.74713508       1.32135905       0.00000000
Si      -1.43967762       1.34627076      -1.35353467       0.00000000
Si       1.14060951       1.57840326       1.42586984       0.00000000
Si      -2.11633164      -0.37613610       2.88717055       0.00000000
Si       2.43595773      -2.70238068       0.16187179       0.00000000
Si       2.64119544      -0.01612710      -2.73677781       0.00000000
Si      -2.64010401       2.76311796       0.22862164       0.00000000
Si      -0.07227873       2.69734707      -2.73270018       0.00000000
Si       2.74258440       2.70047475       0.00983429       0.00000000
