10
Lattice="16.28999089631971 0.0 0.0 0.0 16.28999089631971 0.0 0.0 0.0 34.26581377546328" Properties=species:S:1:pos:R:3:initial_magmoms:R:1 pbc="T T T"
Si      -1.81446165      -0.76040091       1.34394023       0.00000000
Si       1.71807372      -1.60018299       0.45104116       0.00000000
Si       1.15856109       2.17459350       0.60777308       0.00000000
Si      -1.60508628      -1.18144854      -1.69794055       0.00000000
Si      -2.03730885      -2.75214663       0.12911366       0.00000000
Si       3.10746411      -0.40700565      -1.43988457       0.00000000
Si       1.65185487       0.77309082      -3.15924126       0.00000000
Si       0.09650196       3.73740560      -0.87758225       0.00000000
Si       2.45060244      -1.24971993       2.71296306       0.00000000
Si       0.15319116       3.09060789       2.53738493       0.00000000
