10
Lattice="16.28999089631971 0.0 0.0 0.0 16.28999089631971 0.0 0.0 0.0 34.26581377546328" Properties=species:S:1:pos:R:3:initial_magmoms:R:1 pbc="T T T"
Si       1.99901106       0.93722886       0.75706931       0.00000000
Si      -1.73788236       0.69297660       1.46931892       0.00000000
Si      -0.51965100       0.88497054      -2.16354469       0.00000000
Si       0.83860920      -2.27675556      -0.17715436       0.00000000
Si      -0.74249820      -1.10677518      -3.37837127       0.00000000
Si      -3.62050137      -0.70934805       0.95420065       0.00000000
Si       3.74541309       0.39565152      -0.79452187       0.00000000
Si      -1.16181909       0.04240287       3.69036167       0.00000000
Si       0.64369935      -2.90242188      -2.53080589       0.00000000
Si       2.04797880       3.29331672       0.80027853       0.00000000
