10
Lattice="16.28999089631971 0.0 0.0 0.0 16.28999089631971 0.0 0.0 0.0 34.26581377546328" Properties=species:S:1:pos:R:3:initial_magmoms:R:1 pbc="T T T"
Si       1.35738054      -1.35683321      -1.35706405       0.00000000
Si      -1.35812988      -1.35816899       1.35613887       0.00000000
Si       1.35759231       1.35891408       1.35648153       0.00000000
Si      -1.35819504       1.35809144      -1.35720111       0.00000000
Si       2.71259122       0.00320610       2.71529313       0.00000000
Si      -0.00123804       2.71512011       2.71299732       0.00000000
Si      -2.71156824      -0.00275954       2.71700642       0.00000000
Si      -2.71396287       0.00146359      -2.71474488       0.00000000
Si       2.71348843      -0.00014738      -2.71567006       0.00000000
Si       0.00190593      -2.71623371       2.71292879       0.00000000
