10
Lattice="16.28999089631971 0.0 0.0 0.0 16.28999089631971 0.0 0.0 0.0 34.26581377546328" Properties=species:S:1:pos:R:3:initial_magmoms:R:1 pbc="T T T"
Si      -1.35697329       1.35697329       1.35682419       0.00000000
Si       1.35803056      -1.35796698       1.35747524       0.00000000
Si       1.35723474       1.35845568      -1.35792069       0.00000000
Si      -1.35871632      -1.35894438      -1.35713258       0.00000000
Si      -2.71318095      -0.00109143       2.71399103       0.00000000
Si       0.00026064      -2.71462913       2.71395677       0.00000000
Si      -2.71461447       2.71432125      -0.00013706       0.00000000
Si      -0.00004887       2.71580364      -2.71337425       0.00000000
Si       2.71504845       2.71458189       0.00010280       0.00000000
Si      -2.71687878       0.00078192      -2.71303159       0.00000000
