10
Lattice="16.28999089631971 0.0 0.0 0.0 16.28999089631971 0.0 0.0 0.0 34.26581377546328" Properties=species:S:1:pos:R:3:initial_magmoms:R:1 pbc="T T T"
Si       1.76379975      -0.89689482       1.17552366       0.00000000
Si       1.42358310       1.41330411      -1.17548940       0.00000000
Si      -1.54797354      -1.43695719      -1.19375309       0.00000000
Si       0.24578352      -0.84646098       2.93976860       0.00000000
Si       2.63062323      -0.00172674      -2.60800681       0.00000000
Si      -0.07556931      -2.69904937      -2.58844102       0.00000000
Si      -0.08377947       2.73559599      -2.55588848       0.00000000
Si      -1.78108344      -2.22050619       2.48310785       0.00000000
Si      -2.82018996       0.01938510      -2.57836686       0.00000000
Si      -2.03748804      -3.26394911       0.30544563       0.00000000
