10
Lattice="16.28999089631971 0.0 0.0 0.0 16.28999089631971 0.0 0.0 0.0 34.26581377546328" Properties=species:S:1:pos:R:3:initial_magmoms:R:1 pbc="T T T"
Si       1.43035974      -1.82265552       0.35516536       0.00000000
Si      -0.29162358       1.91976021       1.36549344       0.00000000
Si      -1.85083722      -1.06376958       1.09578707       0.00000000
Si       1.05793776       0.98015301      -2.05773180       0.00000000
Si       1.32647841      -1.29655368      -2.78601781       0.00000000
Si      -2.44148004       2.48104845       0.38453118       0.00000000
Si       1.48700007       3.16066725       0.57874992       0.00000000
Si       2.90783016       1.87082505      -0.79246592       0.00000000
Si      -0.56720151      -2.65038300      -2.46110918       0.00000000
Si      -0.78152904      -1.76533101       3.13823631       0.00000000
