10
Lattice="16.28999089631971 0.0 0.0 0.0 16.28999089631971 0.0 0.0 0.0 34.26581377546328" Properties=species:S:1:pos:R:3:initial_magmoms:R:1 pbc="T T T"
Si      -1.91752848       0.23416875       1.28181628       0.00000000
Si       1.09666628       2.07039384       0.04735538       0.00000000
Si       0.83764876      -2.34898542       0.40046479       0.00000000
Si      -2.02140981       0.76027059      -1.85936689       0.00000000
Si       1.23471262       1.43464401      -2.37458796       0.00000000
Si       1.58959516      -1.20207168       2.55369546       0.00000000
Si      -2.91920058      -1.64312343       0.32987717       0.00000000
Si      -1.34399016      -3.23587818      -0.38435985       0.00000000
Si       2.60634203      -2.28395574      -1.27033722       0.00000000
Si       3.34480031       1.52057376       0.35393179       0.00000000
