10
Lattice="16.28999089631971 0.0 0.0 0.0 16.28999089631971 0.0 0.0 0.0 34.26581377546328" Properties=species:S:1:pos:R:3:initial_magmoms:R:1 pbc="T T T"
Si       1.34470855       1.35584928      -1.36545918       0.00000000
Si      -1.33471480       1.27757583       1.45249439       0.00000000
Si      -1.37036923      -1.35619137      -1.36247805       0.00000000
Si       1.33369651      -1.42115589       1.37056479       0.00000000
Si      -2.11244389      -0.60080778       2.78104927       0.00000000
Si      -0.39627543      -2.30128830       2.72523022       0.00000000
Si       2.68576651      -2.71888245      -0.02323223       0.00000000
Si       2.68882903       2.72870532      -0.01846928       0.00000000
Si       2.70088363       0.00229689      -2.72286588       0.00000000
Si      -0.01274367      -2.71383255      -2.72207777       0.00000000
