10
Lattice="16.28999089631971 0.0 0.0 0.0 16.28999089631971 0.0 0.0 0.0 34.26581377546328" Properties=species:S:1:pos:R:3:initial_magmoms:R:1 pbc="T T T"
Si      -0.93465504      -1.68990831       1.44023549       0.00000000
Si       1.69071371       0.91937502       1.47969945       0.00000000
Si      -1.79489736       1.80558360       0.19380755       0.00000000
Si      -0.64734831      -0.41668191      -2.82610884       0.00000000
Si      -2.26147554      -0.41422212       2.93302650       0.00000000
Si       0.44940852       2.30247747       2.93210475       0.00000000
Si      -2.47471164      -2.87363745       0.07216384       0.00000000
Si      -3.54426417       0.85271634       1.43835429       0.00000000
Si       2.80325555       2.72774421       0.29286806       0.00000000
Si      -0.82684782       3.59704377       1.43994423       0.00000000
