10
Lattice="16.28999089631971 0.0 0.0 0.0 16.28999089631971 0.0 0.0 0.0 34.26581377546328" Properties=species:S:1:pos:R:3:initial_magmoms:R:1 pbc="T T T"
Si       1.35699987      -1.35705474       1.35709831       0.00000000
Si      -1.35661491      -1.35795069      -1.35685845       0.00000000
Si       1.35638949       1.35865116      -1.35747524       0.00000000
Si      -1.35839052       1.35873261       1.35764657       0.00000000
Si      -0.00065160      -2.71309950      -2.71313439       0.00000000
Si      -2.71440270       0.00158013       2.71385397       0.00000000
Si       2.71444572      -2.71432125       0.00034266       0.00000000
Si      -2.71521720      -2.71458189       0.00010280       0.00000000
Si      -0.00047241      -2.71450044       2.71577285       0.00000000
Si       2.71476664       2.71564074       0.00010280       0.00000000
