10
Lattice="16.28999089631971 0.0 0.0 0.0 16.28999089631971 0.0 0.0 0.0 34.26581377546328" Properties=species:S:1:pos:R:3:initial_magmoms:R:1 pbc="T T T"
Si      -1.52899569       1.41398829      -1.16222852       0.00000000
Si      -0.57462975      -1.81348425       1.44817690       0.00000000
Si       1.27350400       1.56344904       1.37584172       0.00000000
Si       1.54413140      -1.40339979      -1.28510580       0.00000000
Si       0.15110604       2.56244958      -2.51398136       0.00000000
Si       3.43545416       0.88262478       0.73325456       0.00000000
Si      -2.65680126      -0.11515401      -2.52244502       0.00000000
Si       0.49486969       0.94602546       3.62539366       0.00000000
Si      -2.49654024       2.98553346       0.46090972       0.00000000
Si       0.29803746      -2.93923728      -2.60266134       0.00000000
