10
Lattice="16.28999089631971 0.0 0.0 0.0 16.28999089631971 0.0 0.0 0.0 34.26581377546328" Properties=species:S:1:pos:R:3:initial_magmoms:R:1 pbc="T T T"
Si      -1.18868130      -1.79678700       0.86295074       0.00000000
Si      -1.01294478       1.74521286       1.19060063       0.00000000
Si       2.35217826       0.09376524       0.24863288       0.00000000
Si      -0.47464173       0.13509297      -2.36506205       0.00000000
Si      -3.37515768      -1.00722699       0.12770876       0.00000000
Si       2.98225917       1.34350146      -1.55621707       0.00000000
Si      -3.28466673       1.17569817       1.05288625       0.00000000
Si       1.30398192       1.37600001      -3.15180558       0.00000000
Si      -0.96454719      -3.54999825      -0.59231919       0.00000000
Si      -0.73275678       3.69582633      -0.11475627       0.00000000
