10
Lattice="16.28999089631971 0.0 0.0 0.0 16.28999089631971 0.0 0.0 0.0 34.26581377546328" Properties=species:S:1:pos:R:3:initial_magmoms:R:1 pbc="T T T"
Si       1.31261724      -1.32208011       1.51943612       0.00000000
Si      -1.39354434      -1.27834146      -1.49394718       0.00000000
Si       1.88454027       0.91126260      -1.27372067       0.00000000
Si      -1.38018654       1.40471928       1.50800847       0.00000000
Si      -1.34907264       0.07424982      -3.38449598       0.00000000
Si       3.30521561      -1.02815964      -1.17291059       0.00000000
Si      -2.66747121      -2.58105276       0.11332739       0.00000000
Si       2.65985468       2.71431703       0.13948250       0.00000000
Si       2.53182994      -2.87381664       0.10768381       0.00000000
Si      -2.64044610       2.88216919       0.12418966       0.00000000
