10
Lattice="16.28999089631971 0.0 0.0 0.0 16.28999089631971 0.0 0.0 0.0 34.26581377546328" Properties=species:S:1:pos:R:3:initial_magmoms:R:1 pbc="T T T"
Si       1.34364807       1.36454229       1.38895183       0.00000000
Si      -1.37249766      -1.35237951       1.39004834       0.00000000
Si      -1.26025956       1.47744991      -1.38381881       0.00000000
Si       1.38018654      -1.40471928      -1.50800847       0.00000000
Si      -2.71093293      -2.69799867       0.02491811       0.00000000
Si       2.69396669       2.72447711       0.00508505       0.00000000
Si       2.69280378      -2.72679939       0.01142766       0.00000000
Si      -2.71823085       2.71410038       0.02803973       0.00000000
Si       2.70148270       0.00492534       2.74858582       0.00000000
Si      -0.01143558      -2.70941796       2.74848302       0.00000000
