10
Lattice="16.28999089631971 0.0 0.0 0.0 16.28999089631971 0.0 0.0 0.0 34.26581377546328" Properties=species:S:1:pos:R:3:initial_magmoms:R:1 pbc="T T T"
Si       0.96754455      -1.57154517      -1.62313824       0.00000000
Si      -1.45560924       1.18009647      -1.71935670       0.00000000
Si       1.61722233       1.79866035       0.89207669       0.00000000
Si      -1.38939039      -1.19317734       1.89092572       0.00000000
Si      -3.10746411       0.40700565       1.43988457       0.00000000
Si       0.40226526       2.70529726       2.64367754       0.00000000
Si      -1.94890302       2.58159915       2.04765764       0.00000000
Si       0.14636565       2.30216796      -3.13539224       0.00000000
Si       2.49654024      -2.98553346      -0.46090972       0.00000000
Si       2.64764628      -0.42308388      -2.97489108       0.00000000
