10
Lattice="16.28999089631971 0.0 0.0 0.0 16.28999089631971 0.0 0.0 0.0 34.26581377546328" Properties=species:S:1:pos:R:3:initial_magmoms:R:1 pbc="T T T"
Si       2.02486329      -1.08312210       0.19123761       0.00000000
Si      -0.28891944       1.62443947      -1.63561100       0.00000000
Si      -0.72492129       0.93397086       2.01945686       0.00000000
Si      -1.34804637      -1.92357207      -0.12644092       0.00000000
Si       1.70398287      -1.67917320       2.44562103       0.00000000
Si      -3.04548066       0.97409313       1.46835947       0.00000000
Si       0.92603763       0.71780256      -3.38721185       0.00000000
Si       3.54209664       0.76738932       0.27673087       0.00000000
Si      -0.18964818      -0.83043162       3.54144236       0.00000000
Si      -3.09444840      -1.38199473       1.42515026       0.00000000
