10
Lattice="16.28999089631971 0.0 0.0 0.0 16.28999089631971 0.0 0.0 0.0 34.26581377546328" Properties=species:S:1:pos:R:3:initial_magmoms:R:1 pbc="T T T"
Si      -0.35207577      -2.26968570      -0.16488719       0.00000000
Si       1.98081254       0.50841090       1.12878507       0.00000000
Si      -1.89363105       0.84874158       1.09582134       0.00000000
Si       0.32088042       0.59605110      -2.25438341       0.00000000
Si      -0.91347804       0.35593650       3.22424355       0.00000000
Si      -1.70398287       1.67917320      -2.44562103       0.00000000
Si       0.96228681       1.74125439       2.84190539       0.00000000
Si       1.86945573      -2.90357847      -0.42397115       0.00000000
Si      -2.03035302      -2.23718715      -1.76047570       0.00000000
Si       2.78207855      -1.69764606       1.41247190       0.00000000
