10
Lattice="16.28999089631971 0.0 0.0 0.0 16.28999089631971 0.0 0.0 0.0 34.26581377546328" Properties=species:S:1:pos:R:3:initial_magmoms:R:1 pbc="T T T"
Si       0.13907131      -0.18925722       2.34484521       0.00000000
Si       1.97234628       0.38371095      -1.25810432       0.00000000
Si      -0.51232573      -2.16922527      -0.81600655       0.00000000
Si      -1.48226491       1.88897211      -0.04129033       0.00000000
Si       1.36934750       2.50481556      -2.10522424       0.00000000
Si       0.94160631      -2.35924812       2.57113677       0.00000000
Si      -0.27626734      -3.58521723       1.02499386       0.00000000
Si      -0.85218400       3.13870833      -1.84614028       0.00000000
Si       2.02761825       1.17652896       2.97615892       0.00000000
Si      -2.05704127       0.26406090       3.28763534       0.00000000
