10
Lattice="16.28999089631971 0.0 0.0 0.0 16.28999089631971 0.0 0.0 0.0 34.26581377546328" Properties=species:S:1:pos:R:3:initial_magmoms:R:1 pbc="T T T"
Si       1.86821865       1.04536188       0.81778837       0.00000000
Si       0.91043181       0.19779318      -2.12475577       0.00000000
Si      -2.16195016       0.68082426       0.64258716       0.00000000
Si       0.50450130      -2.21944734       0.79623516       0.00000000
Si       3.01664736      -0.87374673       1.62063683       0.00000000
Si      -1.89132276      -2.28602457      -2.01836036       0.00000000
Si      -3.43545416      -0.88262478      -0.73325456       0.00000000
Si      -0.48138579      -1.03959522      -3.48480094       0.00000000
Si       1.19588148       2.38179348       2.61362641       0.00000000
Si      -2.09353216       3.08219832       0.51306232       0.00000000
