10
Lattice="10.86 0.0 0.0 0.0 10.86 0.0 0.0 0.0 10.86" Properties=species:S:1:pos:R:3:initial_magmoms:R:1 pbc="T T T"
Si       1.00578804       1.55956116      -1.21843770       0.00000000
Si      -1.56881388      -1.24703208      -1.22411748       0.00000000
Si      -1.57300584       1.32350820       1.52638386       0.00000000
Si       2.47628634       0.06658266      -2.55503220       0.00000000
Si      -0.23871366      -2.64841734      -2.55503220       0.00000000
Si       2.47628634       2.78158266       0.15996780       0.00000000
Si      -0.23871366       2.78158266      -2.55503220       0.00000000
Si      -2.95371366       0.06658266      -2.55503220       0.00000000
Si      -2.95371366      -2.64841734       0.15996780       0.00000000
Si      -0.23871366       2.78158266       2.87496780       0.00000000
