10
Lattice="16.28999089631971 0.0 0.0 0.0 16.28999089631971 0.0 0.0 0.0 34.51530692428229" Properties=species:S:1:pos:R:3:initial_magmoms:R:1 pbc="T T T"
Si      -0.20750202      -0.96115887       2.13038948       0.00000000
Si       1.48644621       1.79879067       0.62510707       0.00000000
Si       0.82585413      -1.79901873      -1.46189664       0.00000000
Si      -2.10663746       0.97891497      -0.82643497       0.00000000
Si      -2.52835787      -1.32452361       2.26106450       0.00000000
Si      -3.52858409      -0.92997981       0.09702258       0.00000000
Si       0.50782446      -0.78027471      -3.53854576       0.00000000
Si      -2.58465448       2.71339272       0.73762704       0.00000000
Si       0.96977628      -3.00957750       2.19303480       0.00000000
Si       0.74660328       0.34096599       3.83175345       0.00000000
