10
Lattice="16.28999089631971 0.0 0.0 0.0 16.28999089631971 0.0 0.0 0.0 34.51530692428229" Properties=species:S:1:pos:R:3:initial_magmoms:R:1 pbc="T T T"
Si       1.43085658       1.68278211      -0.67318692       0.00000000
Si       0.45176242      -1.65845232      -1.64962550       0.00000000
Si      -2.31725154       0.42648849      -0.41073238       0.00000000
Si       0.55207624      -0.26404461       2.34283131       0.00000000
Si       1.02056035      -3.50093277      -0.39968748       0.00000000
Si      -0.76810934      -2.00381661       3.01770949       0.00000000
Si       3.63487730       0.73427175      -0.16501777       0.00000000
Si       0.65820560       3.61767410       0.59704611       0.00000000
Si      -3.44416116      -1.48932954       0.28816846       0.00000000
Si      -2.56073817      -0.00428427      -2.78738871       0.00000000
