10
Lattice="16.28999089631971 0.0 0.0 0.0 16.28999089631971 0.0 0.0 0.0 34.51530692428229" Properties=species:S:1:pos:R:3:initial_magmoms:R:1 pbc="T T T"
Si      -1.33980363      -1.33437012       1.39112297       0.00000000
Si       1.37715660       1.37816479       1.38539342       0.00000000
Si      -1.48595751       1.26749216      -1.45684015       0.00000000
Si       1.35228177      -1.43297349      -1.49144866       0.00000000
Si       2.19393720       0.61627660      -2.49885646       0.00000000
Si       0.34676523       2.11983383      -2.75583967       0.00000000
Si      -2.67493203      -2.69956986       0.00546032       0.00000000
Si       2.73453714      -2.69515527       0.01076533       0.00000000
Si       0.01508454      -2.69544849       2.74805850       0.00000000
Si      -2.70783783       2.73704564       0.00287513       0.00000000
