10
Lattice="16.28999089631971 0.0 0.0 0.0 16.28999089631971 0.0 0.0 0.0 34.51530692428229" Properties=species:S:1:pos:R:3:initial_magmoms:R:1 pbc="T T T"
Si      -1.35431802      -1.32850393      -1.37847310       0.00000000
Si       1.36199061       1.38409777      -1.37377901       0.00000000
Si      -1.51288488       1.25995168       1.34830670       0.00000000
Si       1.33936380      -1.44575935       1.56399298       0.00000000
Si       2.14291692       0.45869545       2.70448290       0.00000000
Si       0.23561856       2.08101655       2.79594852       0.00000000
Si       2.71191033      -2.68049248       0.00117352       0.00000000
Si      -2.72178207      -2.69051083      -0.00024161       0.00000000
Si      -0.00039096      -2.68985923      -2.73461478       0.00000000
Si      -2.71114470       0.02693714      -2.73644409       0.00000000
