10
Lattice="16.28999089631971 0.0 0.0 0.0 16.28999089631971 0.0 0.0 0.0 34.51530692428229" Properties=species:S:1:pos:R:3:initial_magmoms:R:1 pbc="T T T"
Si      -0.86751810       2.15106062      -0.09695355       0.00000000
Si      -1.60451028      -1.21188675       1.18867332       0.00000000
Si      -0.16740093      -0.36682671      -2.36619819       0.00000000
Si       2.12696575       0.72478152       0.91413841       0.00000000
Si       1.72388599       1.17237696      -2.31780770       0.00000000
Si       0.88718435       3.14328452      -1.33764147       0.00000000
Si      -0.60246351      -3.31038084       1.17096696       0.00000000
Si      -2.79796455       1.97713229      -1.45102431       0.00000000
Si      -2.49783759       0.12147323      -2.86083733       0.00000000
Si       3.75119278      -0.63254919      -0.16788255       0.00000000
