10
Lattice="16.28999089631971 0.0 0.0 0.0 16.28999089631971 0.0 0.0 0.0 34.51530692428229" Properties=species:S:1:pos:R:3:initial_magmoms:R:1 pbc="T T T"
Si       1.35648459      -1.35304740      -1.36066319       0.00000000
Si      -1.35729909      -1.35672894       1.35734972       0.00000000
Si       1.35830907       1.35778779       1.35690102       0.00000000
Si      -1.35834165       1.35796698      -1.35955870       0.00000000
Si      -2.70422145       0.00276930      -2.72387016       0.00000000
Si       0.00104256      -2.71492398       2.71400913       0.00000000
Si      -2.71430496       0.00009774       2.71504459       0.00000000
Si       2.71490769      -2.71471221      -0.00065579       0.00000000
Si      -2.71500543       2.71489140       0.00124255       0.00000000
Si       0.00065160       2.71557558       2.71487201       0.00000000
