10
Lattice="16.28999089631971 0.0 0.0 0.0 16.28999089631971 0.0 0.0 0.0 34.51530692428229" Properties=species:S:1:pos:R:3:initial_magmoms:R:1 pbc="T T T"
Si      -1.26260532       1.46015415      -1.43745979       0.00000000
Si       1.46331441      -1.26219807      -1.45526970       0.00000000
Si       1.68860511       1.05279012       1.45823802       0.00000000
Si      -1.01564892      -1.92163356       1.33822823       0.00000000
Si      -0.30568185       0.18402813       2.58022773       0.00000000
Si       2.79601560      -2.54282013       0.07044578       0.00000000
Si      -2.60565066       0.09288558      -2.83129221       0.00000000
Si       0.11072313      -2.61855234      -2.83149930       0.00000000
Si       0.89164944      -3.54395466       1.24676261       0.00000000
Si      -2.76415236      -2.74269843      -0.10941358       0.00000000
