10
Lattice="16.28999089631971 0.0 0.0 0.0 16.28999089631971 0.0 0.0 0.0 34.51530692428229" Properties=species:S:1:pos:R:3:initial_magmoms:R:1 pbc="T T T"
Si       1.50526116      -1.69209117      -0.50012708       0.00000000
Si       1.31833341       1.87408305       0.54261544       0.00000000
Si      -1.19596293      -1.01385702       1.78364851       0.00000000
Si      -1.00980081       0.42059151      -2.14826842       0.00000000
Si      -1.49042097       2.67876018      -1.80480641       0.00000000
Si       0.60097068       3.45549996      -1.02051465       0.00000000
Si       0.66600036      -2.64938931      -2.45441936       0.00000000
Si       3.48076575       0.92672181       0.76064876       0.00000000
Si      -3.43603341      -0.57844161       1.29135641       0.00000000
Si      -0.70597602      -3.29189949       1.81433264       0.00000000
