10
Lattice="16.28999089631971 0.0 0.0 0.0 16.28999089631971 0.0 0.0 0.0 34.51530692428229" Properties=species:S:1:pos:R:3:initial_magmoms:R:1 pbc="T T T"
Si       0.86320710       2.09456820      -0.58627733       0.00000000
Si       1.47595545      -1.62310302       0.83872243       0.00000000
Si      -1.31678586       0.50471307       1.89962001       0.00000000
Si      -0.58705902      -1.30497561      -1.93047671       0.00000000
Si       2.39831154       1.45707534      -2.30482994       0.00000000
Si      -1.12407516       3.35041317      -1.05830893       0.00000000
Si       1.54408023      -2.33188092      -2.54160508       0.00000000
Si       0.27989478      -3.59474688       1.36342442       0.00000000
Si      -2.01018600      -3.11241627       1.08757793       0.00000000
Si       3.05540127      -2.24047773      -0.74787809       0.00000000
