10
Lattice="16.28999089631971 0.0 0.0 0.0 16.28999089631971 0.0 0.0 0.0 34.51530692428229" Properties=species:S:1:pos:R:3:initial_magmoms:R:1 pbc="T T T"
Si      -1.35467640       1.35834165       1.35952418       0.00000000
Si       1.35892809      -1.35746199       1.36062867       0.00000000
Si      -1.34462547      -1.35956340      -1.37871471       0.00000000
Si       1.38223908       1.35294966      -1.38224562       0.00000000
Si      -0.04302189       2.43981846      -2.93967379       0.00000000
Si      -2.71080098      -2.71441899      -0.00100094       0.00000000
Si       2.71674846      -2.71094922      -0.00041418       0.00000000
Si      -2.71228663       0.00114030       2.71670133       0.00000000
Si       0.00250866      -2.71407690       2.71694293       0.00000000
Si      -2.71283071       2.71888245      -0.00162222       0.00000000
