10
Lattice="16.28999089631971 0.0 0.0 0.0 16.28999089631971 0.0 0.0 0.0 34.51530692428229" Properties=species:S:1:pos:R:3:initial_magmoms:R:1 pbc="T T T"
Si       1.35610992       1.35545832       1.35759133       0.00000000
Si      -1.35742941       1.35749457      -1.35766036       0.00000000
Si       1.35765747      -1.35778779      -1.35797099       0.00000000
Si      -1.35788553      -1.35845568       1.36028352       0.00000000
Si      -0.00100998       2.71410948      -2.71397462       0.00000000
Si       2.71427238       0.00071676      -2.71501008       0.00000000
Si      -2.71565703      -0.00068418      -2.71362946       0.00000000
Si      -2.71477737       2.71490769      -0.00065579       0.00000000
Si       2.71515204       2.71515204      -0.00017258       0.00000000
Si       2.71534752      -2.71500543      -0.00013806       0.00000000
