10
Lattice="16.28999089631971 0.0 0.0 0.0 16.28999089631971 0.0 0.0 0.0 34.51530692428229" Properties=species:S:1:pos:R:3:initial_magmoms:R:1 pbc="T T T"
Si      -1.35641943      -1.35661491       1.35631426       0.00000000
Si       1.35782037      -1.35348723      -1.36104286       0.00000000
Si       1.35868374       1.35803214       1.35641780       0.00000000
Si      -1.35892809       1.35746199      -1.36062867       0.00000000
Si      -2.71376739       0.00079821       2.71331882       0.00000000
Si       2.71332756       2.71453302      -0.00027612       0.00000000
Si       0.00100998      -2.71410948       2.71397462       0.00000000
Si       2.71528236      -2.71339272      -0.00103546       0.00000000
Si       0.00123804       2.71541268       2.71366398       0.00000000
Si      -2.71360449       2.71580364      -0.00110449       0.00000000
