10
Lattice="16.28999089631971 0.0 0.0 0.0 16.28999089631971 0.0 0.0 0.0 34.51530692428229" Properties=species:S:1:pos:R:3:initial_magmoms:R:1 pbc="T T T"
Si      -1.35610992      -1.35545832      -1.35759133       0.00000000
Si      -1.35361755       1.35944937       1.36107737       0.00000000
Si       1.35904212       1.35969372      -1.35776390       0.00000000
Si       1.36389654      -1.35482301       1.35990385       0.00000000
Si      -2.71399545      -2.71391400       0.00269220       0.00000000
Si      -2.71353933       0.00203625      -2.71525168       0.00000000
Si       0.00154755      -2.71324611      -2.71556232       0.00000000
Si       2.71629234      -2.71394658      -0.00072482       0.00000000
Si      -2.69842221      -0.01474245       2.73240580       0.00000000
Si      -2.71477737       2.71697652      -0.00006903       0.00000000
