10
Lattice="16.28999089631971 0.0 0.0 0.0 16.28999089631971 0.0 0.0 0.0 34.51530692428229" Properties=species:S:1:pos:R:3:initial_magmoms:R:1 pbc="T T T"
Si      -1.45736856       1.27827630       1.32307600       0.00000000
Si      -1.37441988      -1.34273583      -1.37232937       0.00000000
Si       1.34480466       1.37419182      -1.37132843       0.00000000
Si       1.28661678      -1.31246901       1.63985766       0.00000000
Si       2.68596036      -2.69120574       0.02250399       0.00000000
Si      -2.72073299      -2.69992089       0.01767185       0.00000000
Si      -0.01557324      -2.69917155      -2.72971360       0.00000000
Si       2.69961138       2.72929176       0.01342646       0.00000000
Si       2.69842221       0.01474245      -2.73240580       0.00000000
Si      -2.72937484       0.01790271      -2.73237128       0.00000000
