10
Lattice="16.28999089631971 0.0 0.0 0.0 16.28999089631971 0.0 0.0 0.0 34.51530692428229" Properties=species:S:1:pos:R:3:initial_magmoms:R:1 pbc="T T T"
Si       1.62422703      -1.35733071      -1.08202096       0.00000000
Si       0.41796882       2.28842735      -0.60491561       0.00000000
Si       0.26011872      -0.24960190       2.38873670       0.00000000
Si      -2.12696575      -0.72478152      -0.91413841       0.00000000
Si      -0.40307976       0.44759544      -3.23194612       0.00000000
Si      -2.99448386       1.42627909      -1.01109197       0.00000000
Si      -1.23978140       2.41850299      -2.25177988       0.00000000
Si       3.52181655       0.03228026      -0.65506638       0.00000000
Si       1.03689108      -3.46403496      -0.18621018       0.00000000
Si       2.69685837       2.21093581      -1.22422411       0.00000000
