10
Lattice="16.28999089631971 0.0 0.0 0.0 16.28999089631971 0.0 0.0 0.0 34.51530692428229" Properties=species:S:1:pos:R:3:initial_magmoms:R:1 pbc="T T T"
Si      -1.13790537      -1.53466461       1.42240217       0.00000000
Si       0.51720750      -1.98107577      -1.22829691       0.00000000
Si       1.59658290       1.09911888       1.59017427       0.00000000
Si      -1.27935144       1.58988771      -1.62470544       0.00000000
Si       2.58652620       2.71845891       0.15241968       0.00000000
Si      -2.36566638      -0.17791938       2.95601476       0.00000000
Si      -2.56715739       2.81904966       0.10144054       0.00000000
Si       2.75677299      -2.69578323       0.29739375       0.00000000
Si      -2.68736130      -2.81733921       0.12974311       0.00000000
Si       0.34823133       2.53526157       2.97538821       0.00000000
