10
Lattice="16.28999089631971 0.0 0.0 0.0 16.28999089631971 0.0 0.0 0.0 34.51530692428229" Properties=species:S:1:pos:R:3:initial_magmoms:R:1 pbc="T T T"
Si       0.53783064      -2.09637639      -0.89698430       0.00000000
Si       1.98320976       0.41886477       1.24293141       0.00000000
Si      -1.61401320      -0.24019605       1.73688025       0.00000000
Si      -0.71508213       1.37704257      -1.86272313       0.00000000
Si      -1.55356101      -2.87311617      -1.68127606       0.00000000
Si       1.99865268       2.67195096       1.68393374       0.00000000
Si       0.96420510       2.99648034      -2.04834655       0.00000000
Si       1.82101023      -0.85410099       3.21461942       0.00000000
Si       2.46951513      -1.82547369      -2.27179877       0.00000000
Si      -0.09614358       0.34744941      -3.87451794       0.00000000
