10
Lattice="16.28999089631971 0.0 0.0 0.0 16.28999089631971 0.0 0.0 0.0 34.51530692428229" Properties=species:S:1:pos:R:3:initial_magmoms:R:1 pbc="T T T"
Si      -2.09965068       0.97226865      -0.39174895       0.00000000
Si       0.07752411       1.03249278       2.10722970       0.00000000
Si       1.61401320       0.24019605      -1.73688025       0.00000000
Si       0.06667497      -2.11918239       1.12768474       0.00000000
Si      -0.98339472      -0.87382818       2.90184154       0.00000000
Si      -1.87647768      -2.37827484      -2.03046761       0.00000000
Si       2.33908110      -2.62101213       1.02327588       0.00000000
Si      -1.51231473       3.07897290      -1.28755973       0.00000000
Si       3.59722296       0.65906082      -0.49394883       0.00000000
Si      -3.05375598      -0.32985621      -2.09311293       0.00000000
