10
Lattice="16.28999089631971 0.0 0.0 0.0 16.28999089631971 0.0 0.0 0.0 34.51530692428229" Properties=species:S:1:pos:R:3:initial_magmoms:R:1 pbc="T T T"
Si       1.26237237       1.82276303      -0.68112545       0.00000000
Si      -2.33264233       0.37665738      -0.31250176       0.00000000
Si       0.87133092      -1.79269562      -1.30933890       0.00000000
Si       0.28601330      -0.38167211       2.38638965       0.00000000
Si      -0.44885466      -3.53246762      -0.63446073       0.00000000
Si       0.81061809       3.54047837       0.90664859       0.00000000
Si       3.55245315       1.34043242      -0.40527896       0.00000000
Si       0.97746027       2.08902308      -3.05512410       0.00000000
Si      -3.51575245      -1.58582891       0.37214425       0.00000000
Si      -2.76203044       0.70414991      -2.66427255       0.00000000
