10
Lattice="16.28999089631971 0.0 0.0 0.0 16.28999089631971 0.0 0.0 0.0 34.51530692428229" Properties=species:S:1:pos:R:3:initial_magmoms:R:1 pbc="T T T"
Si       1.70803908       1.54118061      -0.64405599       0.00000000
Si       0.28491210      -0.26626005       2.37399865       0.00000000
Si       0.77265099      -1.93489199      -1.27023304       0.00000000
Si      -2.43238112       0.44230608      -0.28696042       0.00000000
Si       0.75429216       2.38384602      -2.64069858       0.00000000
Si      -0.65820560      -3.61767410      -0.59704611       0.00000000
Si       2.57499288      -0.74859066       2.64984514       0.00000000
Si      -0.97746027      -2.08902308       3.05512410       0.00000000
Si      -1.54367298       2.65450437      -2.33672210       0.00000000
Si       2.29509810       2.84615622       1.28642072       0.00000000
