10
Lattice="16.28999089631971 0.0 0.0 0.0 16.28999089631971 0.0 0.0 0.0 34.51530692428229" Properties=species:S:1:pos:R:3:initial_magmoms:R:1 pbc="T T T"
Si      -0.04978224       1.65508029      -1.65718436       0.00000000
Si      -2.26101942       0.05527197       0.65727536       0.00000000
Si       0.94020993      -1.60072056      -1.48995760       0.00000000
Si       1.03410549       0.80526357       1.99308751       0.00000000
Si      -2.75100633       2.33331444       0.62659123       0.00000000
Si      -0.52711182      -3.43855673      -1.22795176       0.00000000
Si       2.12281506       2.45666232      -1.84525837       0.00000000
Si      -0.88904304       0.69778215      -3.61147664       0.00000000
Si       3.18622626      -1.95062976      -0.71819491       0.00000000
Si      -3.54559995      -0.98389971      -0.97347026       0.00000000
