10
Lattice="16.28999089631971 0.0 0.0 0.0 16.28999089631971 0.0 0.0 0.0 34.51530692428229" Properties=species:S:1:pos:R:3:initial_magmoms:R:1 pbc="T T T"
Si       1.41714855      -1.55711730      -0.87851860       0.00000000
Si      -0.29409966      -0.07567212       2.29495856       0.00000000
Si       0.45787932       1.98443363      -1.10745876       0.00000000
Si      -2.22159762      -0.78392874       0.01408225       0.00000000
Si      -1.78813701       2.33434283      -1.87922145       0.00000000
Si      -2.75472045      -0.04297936       2.21263950       0.00000000
Si       0.03163518      -3.45775305      -0.89998713       0.00000000
Si      -3.25545876       0.49650666      -1.61721561       0.00000000
Si       1.14087015      -1.46079453      -3.22138443       0.00000000
Si       3.58770960      -1.19644041       0.13602490       0.00000000
