10
Lattice="16.28999089631971 0.0 0.0 0.0 16.28999089631971 0.0 0.0 0.0 34.51530692428229" Properties=species:S:1:pos:R:3:initial_magmoms:R:1 pbc="T T T"
Si      -0.69840117      -0.18214501       2.19708970       0.00000000
Si      -0.48462750      -1.73880179      -1.46241437       0.00000000
Si       2.16981171      -0.82848401       0.44393613       0.00000000
Si      -0.37714608       2.17966716      -1.14401049       0.00000000
Si      -2.54557314       1.32141222       1.94010649       0.00000000
Si       1.24379037       0.67723069       3.35756607       0.00000000
Si      -3.53225844       0.25525127      -0.94603058       0.00000000
Si       3.54072924       1.10405475      -0.07727982       0.00000000
Si      -2.34900171       1.71045000      -2.35539489       0.00000000
Si       0.72857025      -1.35043190      -3.45056619       0.00000000
