10
Lattice="16.28999089631971 0.0 0.0 0.0 16.28999089631971 0.0 0.0 0.0 34.51530692428229" Properties=species:S:1:pos:R:3:initial_magmoms:R:1 pbc="T T T"
Si       1.74231324      -0.37326906      -1.52768285       0.00000000
Si      -1.62134370       0.04792518      -1.76770243       0.00000000
Si       0.06610482      -2.04951006       1.35810906       0.00000000
Si       0.46332018       2.04486741       1.43514726       0.00000000
Si      -1.12238100      -2.15285382      -2.41879955       0.00000000
Si      -1.94471649      -1.40297625       2.53200982       0.00000000
Si       1.27746180      -2.55712275      -2.22544469       0.00000000
Si      -0.29747169       3.75653916       0.08884245       0.00000000
Si       1.37007045       0.89989218      -3.45809053       0.00000000
Si      -0.91851165       1.27060371      -3.62134803       0.00000000
