10
Lattice="16.28999089631971 0.0 0.0 0.0 16.28999089631971 0.0 0.0 0.0 34.51530692428229" Properties=species:S:1:pos:R:3:initial_magmoms:R:1 pbc="T T T"
Si      -2.01082131       0.64653381       1.17390076       0.00000000
Si      -0.06610482       2.04951006      -1.35810906       0.00000000
Si       2.04734349      -0.56265660       1.28321080       0.00000000
Si       0.22874418      -0.06817365       2.69959143       0.00000000
Si       0.31996818      -2.72824920      -0.49384529       0.00000000
Si       1.67620842       1.67624100      -2.88579191       0.00000000
Si      -2.71767699      -1.22205951      -2.25806167       0.00000000
Si       3.55654683       1.13922486       0.42422787       0.00000000
Si      -3.74508729      -0.42539706      -0.22617893       0.00000000
Si       1.21135698      -0.50761269      -3.58355374       0.00000000
