10
Lattice="16.28999089631971 0.0 0.0 0.0 16.28999089631971 0.0 0.0 0.0 34.51530692428229" Properties=species:S:1:pos:R:3:initial_magmoms:R:1 pbc="T T T"
Si      -0.99771363      -1.55382165      -1.54604501       0.00000000
Si       2.14873245      -0.77830362       1.16075042       0.00000000
Si       1.65815910       1.12296744      -1.61952814       0.00000000
Si      -1.39742136      -0.63703674       2.07899616       0.00000000
Si      -1.68979428       2.04672447      -0.42816262       0.00000000
Si      -0.01036044      -2.32591878       2.95078427       0.00000000
Si      -2.32614684      -0.14224428      -3.01657048       0.00000000
Si      -2.09394918      -3.25281978      -0.10806749       0.00000000
Si       2.76309351       2.77379604      -0.35426531       0.00000000
Si       0.40335669       2.56417632      -3.04856619       0.00000000
