10
Lattice="16.28999089631971 0.0 0.0 0.0 16.28999089631971 0.0 0.0 0.0 34.51530692428229" Properties=species:S:1:pos:R:3:initial_magmoms:R:1 pbc="T T T"
Si       2.00741670       0.41251167       1.17314142       0.00000000
Si      -1.93168449      -0.27090270       1.37481447       0.00000000
Si      -0.14046867       1.77445341      -1.60151114       0.00000000
Si       0.47913777      -2.05816005      -1.17155372       0.00000000
Si      -1.21432176      -1.85231961       2.93794457       0.00000000
Si      -2.56565871       2.17292310      -1.60271917       0.00000000
Si       0.18676485       0.62560116      -3.67871250       0.00000000
Si      -2.46951513       1.82547369       2.27179877       0.00000000
Si      -1.63800837      -3.03130836      -1.80836149       0.00000000
Si       3.47986980       1.75593168      -0.15714828       0.00000000
