10
Lattice="16.28999089631971 0.0 0.0 0.0 16.28999089631971 0.0 0.0 0.0 34.51530692428229" Properties=species:S:1:pos:R:3:initial_magmoms:R:1 pbc="T T T"
Si       0.55496772      -1.84533120       1.25725527       0.00000000
Si       0.53012547      -0.81658512      -2.09401033       0.00000000
Si      -2.27240613       0.50182974       0.10440886       0.00000000
Si       1.09594233       2.00710719       0.45446330       0.00000000
Si      -0.26899677       2.87464743       2.09549449       0.00000000
Si      -2.33908110       2.62101213      -1.02327588       0.00000000
Si       1.14003936      -1.01980287       3.32865806       0.00000000
Si       2.69255781      -1.76394636      -1.87597701       0.00000000
Si      -0.18723726       0.76483179      -3.65714042       0.00000000
Si      -1.29474549      -3.24415350       1.41174587       0.00000000
