10
Lattice="16.28999089631971 0.0 0.0 0.0 16.28999089631971 0.0 0.0 0.0 34.51530692428229" Properties=species:S:1:pos:R:3:initial_magmoms:R:1 pbc="T T T"
Si       0.00058644       0.95590602       2.10098242       0.00000000
Si      -1.67928723      -1.61943777       0.18562342       0.00000000
Si       0.00351864       1.89297360      -1.43569951       0.00000000
Si      -1.06034868      -2.64903093      -1.82617139       0.00000000
Si       1.46790819       2.79374219       1.83897658       0.00000000
Si      -0.96420510      -2.99648034       2.04834655       0.00000000
Si      -2.30892831       2.66058773      -1.39445369       0.00000000
Si       1.36484136      -3.04750062      -1.82496336       0.00000000
Si       1.40778180       3.51807704      -0.41977540       0.00000000
Si      -2.19294351       1.23190749       2.92462165       0.00000000
