10
Lattice="16.28999089631971 0.0 0.0 0.0 16.28999089631971 0.0 0.0 0.0 34.51530692428229" Properties=species:S:1:pos:R:3:initial_magmoms:R:1 pbc="T T T"
Si       0.29409966       0.07567212      -2.29495856       0.00000000
Si       1.03979070       1.66777739       1.22712339       0.00000000
Si       0.67109913      -2.17943910       0.77114142       0.00000000
Si      -2.46062079       0.03269276      -0.08231905       0.00000000
Si      -1.92749796      -0.70825662      -2.28087630       0.00000000
Si      -2.52400518      -1.47365856       1.76183483       0.00000000
Si      -0.50727060      -2.10843099       2.79619012       0.00000000
Si      -0.03666879       1.59114923       3.31647415       0.00000000
Si       0.57135546       3.69593126       0.03030446       0.00000000
Si       3.36126231       1.11631690       1.61635273       0.00000000
