10
Lattice="16.28999089631971 0.0 0.0 0.0 16.28999089631971 0.0 0.0 0.0 34.51530692428229" Properties=species:S:1:pos:R:3:initial_magmoms:R:1 pbc="T T T"
Si      -1.35410625      -1.73861541       0.84980185       0.00000000
Si       2.29811175       0.06274908       0.55114073       0.00000000
Si      -0.41612805       0.64545867      -2.26914109       0.00000000
Si      -0.74951919       2.05680213       1.06752452       0.00000000
Si       0.43373754       3.51200087      -0.34183979       0.00000000
Si       2.45482155      -2.09463336       1.63547422       0.00000000
Si       0.72280359       2.69943938      -2.55603248       0.00000000
Si      -2.96645787       2.32228026       0.40738440       0.00000000
Si       3.51130950       0.45111897      -1.43701109       0.00000000
Si      -3.64480605      -1.21986036       0.35692299       0.00000000
