10
Lattice="16.28999089631971 0.0 0.0 0.0 16.28999089631971 0.0 0.0 0.0 34.51530692428229" Properties=species:S:1:pos:R:3:initial_magmoms:R:1 pbc="T T T"
Si      -1.39198050       1.26414635       1.38132752       0.00000000
Si       1.32753726      -1.46487566       1.35045356       0.00000000
Si      -1.94219154      -0.85937569      -1.16047637       0.00000000
Si       1.23603633       1.62640337      -1.57291661       0.00000000
Si       0.92602134      -1.50571469      -2.91362994       0.00000000
Si      -1.24379037      -0.67723069      -3.35756607       0.00000000
Si      -2.83048524       2.45528744      -0.03262389       0.00000000
Si      -0.04944015       2.61965354       2.72760472       0.00000000
Si       2.75322177       2.59688012      -0.04288184       0.00000000
Si       2.66900247      -0.09651825       2.73019337       0.00000000
