10
Lattice="16.28999089631971 0.0 0.0 0.0 16.28999089631971 0.0 0.0 0.0 34.51530692428229" Properties=species:S:1:pos:R:3:initial_magmoms:R:1 pbc="T T T"
Si       1.35545070       1.33723958      -1.36100144       0.00000000
Si      -1.35736425       1.35654323       1.35579653       0.00000000
Si       1.35707440      -1.35800902       1.35552041       0.00000000
Si      -1.34146521      -1.36835741      -1.37973981       0.00000000
Si      -2.66900247       0.09651825      -2.73019337       0.00000000
Si       2.67900194      -0.04329882      -2.74606006       0.00000000
Si      -0.00004887       2.71457537       2.71283561       0.00000000
Si      -2.71507059      -0.00080473       2.71238691       0.00000000
Si       2.71485786      -2.71277111      -0.00572954       0.00000000
Si       2.71517552      -0.00104908       2.71307722       0.00000000
