10
Lattice="16.28999089631971 0.0 0.0 0.0 16.28999089631971 0.0 0.0 0.0 34.51530692428229" Properties=species:S:1:pos:R:3:initial_magmoms:R:1 pbc="T T T"
Si       1.35757602      -1.35823088      -1.36225089       0.00000000
Si      -1.35896067       1.35910728      -1.36162962       0.00000000
Si       1.35325917       1.35519768       1.38554874       0.00000000
Si      -1.36130643      -1.35805983       1.39466079       0.00000000
Si       2.71212352      -2.71276460      -0.00455602       0.00000000
Si      -2.71694394      -2.71093246       0.00024161       0.00000000
Si       2.71267596       2.71782360       0.00134610       0.00000000
Si       0.00055386      -2.71382033      -2.71870322       0.00000000
Si      -2.71529865       0.00156384      -2.71815097       0.00000000
Si       2.71516299       0.00114030      -2.71856515       0.00000000
