10
Lattice="16.28999089631971 0.0 0.0 0.0 16.28999089631971 0.0 0.0 0.0 34.51530692428229" Properties=species:S:1:pos:R:3:initial_magmoms:R:1 pbc="T T T"
Si       1.51718544       0.97047675       1.53003477       0.00000000
Si       1.06090254      -1.19957931      -1.86192927       0.00000000
Si      -1.23603633      -1.62640337       1.57291661       0.00000000
Si      -1.12959747       2.04162570      -1.15160386       0.00000000
Si      -0.31001499      -3.13211807      -1.34071333       0.00000000
Si       0.08226450       2.35701639       2.90793836       0.00000000
Si       3.18338433       1.96657767       0.26950123       0.00000000
Si      -2.47982670      -2.30363406      -1.78464946       0.00000000
Si       3.28840596      -1.70503520      -1.20344588       0.00000000
Si      -2.94819678       2.53610865       0.26477677       0.00000000
