10
Lattice="16.28999089631971 0.0 0.0 0.0 16.28999089631971 0.0 0.0 0.0 34.51530692428229" Properties=species:S:1:pos:R:3:initial_magmoms:R:1 pbc="T T T"
Si       1.34807895       1.35029439       1.39310069       0.00000000
Si      -1.36774098      -1.36376622       1.39258296       0.00000000
Si       1.43492094      -1.38653964      -1.37790360       0.00000000
Si      -1.28878335       1.52829522      -1.49291902       0.00000000
Si      -0.08226450      -2.35701639      -2.90793836       0.00000000
Si       2.68877853       2.70410742       0.01312273       0.00000000
Si      -2.71521720       2.70664866       0.02338068       0.00000000
Si      -2.71028133      -2.71927341       0.04630576       0.00000000
Si       2.70615234      -2.74269843       0.03417017       0.00000000
Si      -0.00706986       2.70508482       2.75131330       0.00000000
