10
Lattice="16.28999089631971 0.0 0.0 0.0 16.28999089631971 0.0 0.0 0.0 34.51530692428229" Properties=species:S:1:pos:R:3:initial_magmoms:R:1 pbc="T T T"
Si      -1.35675775      -1.35553977      -1.35531331       0.00000000
Si       1.35819504       1.35915615      -1.35496816       0.00000000
Si       1.35790182      -1.35935163       1.36245799       0.00000000
Si      -1.35924479       1.36114353       1.36459794       0.00000000
Si       0.00070047      -2.71318095      -2.71255949       0.00000000
Si      -2.71452392       0.00244350      -2.71280109       0.00000000
Si       2.71520091       0.00232947      -2.71266303       0.00000000
Si       2.71699281      -2.71172300       0.00065579       0.00000000
Si      -2.71434473      -2.71491095       0.00100094       0.00000000
Si       0.00084382       2.71671588      -2.71273206       0.00000000
