10
Lattice="16.28999089631971 0.0 0.0 0.0 16.28999089631971 0.0 0.0 0.0 34.51530692428229" Properties=species:S:1:pos:R:3:initial_magmoms:R:1 pbc="T T T"
Si      -1.35391077       1.35733167      -1.36321732       0.00000000
Si       1.35924479      -1.36114353      -1.36459794       0.00000000
Si      -1.35941679      -1.36262592       1.38420264       0.00000000
Si       1.36935110       1.35428544       1.38793030       0.00000000
Si       0.20385536      -2.58665652       2.75673910       0.00000000
Si      -2.71235016       2.71381626      -0.00234704       0.00000000
Si       2.71566422       2.71147050      -0.00207092       0.00000000
Si      -2.71267596      -2.71782360      -0.00134610       0.00000000
Si      -2.71238274      -0.00156384      -2.71987674       0.00000000
Si       0.00203590       2.71375110      -2.72053253       0.00000000
