10
Lattice="16.28999089631971 0.0 0.0 0.0 16.28999089631971 0.0 0.0 0.0 34.51530692428229" Properties=species:S:1:pos:R:3:initial_magmoms:R:1 pbc="T T T"
Si      -0.98505630      -1.57104018       1.42689810       0.00000000
Si       0.83179088      -1.39812183      -1.68486565       0.00000000
Si       1.31185718       1.44200709       1.37367547       0.00000000
Si      -1.78525368       1.17372708      -1.10397271       0.00000000
Si       0.98768129       2.22130440      -2.32981903       0.00000000
Si      -0.67914639       3.21349572      -0.92311240       0.00000000
Si       0.53437946       0.03749958      -3.41836339       0.00000000
Si      -0.49849029      -0.47361546       3.52577509       0.00000000
Si      -0.10350666       3.36520449       1.33650246       0.00000000
Si      -0.05691726      -3.61032012       0.36489603       0.00000000
