10
Lattice="16.28999089631971 0.0 0.0 0.0 16.28999089631971 0.0 0.0 0.0 34.51530692428229" Properties=species:S:1:pos:R:3:initial_magmoms:R:1 pbc="T T T"
Si       1.96032231      -1.02509712      -0.70221431       0.00000000
Si       0.11166795       1.56484998       1.75627786       0.00000000
Si      -1.72481778      -1.58548941       0.36865820       0.00000000
Si      -0.66551166       1.62670311      -1.61417826       0.00000000
Si      -0.89055801       3.03779178       0.25434344       0.00000000
Si       1.76573826      -2.86863642       0.67042570       0.00000000
Si       1.44243063      -2.06470863      -2.73658215       0.00000000
Si      -1.52772507      -3.40272036      -1.08019165       0.00000000
Si      -3.88725012      -0.63812817       0.15062488       0.00000000
Si       1.72374264      -2.14257483       2.91896114       0.00000000
