10
Lattice="16.28999089631971 0.0 0.0 0.0 16.28999089631971 0.0 0.0 0.0 34.51530692428229" Properties=species:S:1:pos:R:3:initial_magmoms:R:1 pbc="T T T"
Si      -2.06193933      -0.53625051      -0.92079987       0.00000000
Si       1.49395590       1.09950984      -1.40442862       0.00000000
Si       0.65624265      -2.20390668       0.42274372       0.00000000
Si      -0.39151386       1.71295866       1.68883491       0.00000000
Si      -3.34414152      -0.09159867       0.95503908       0.00000000
Si       0.49190913       3.19800393      -1.38672226       0.00000000
Si       1.23188238      -2.05219791       2.68235858       0.00000000
Si      -2.71880100       2.13933312       1.54335281       0.00000000
Si       0.73539576       3.62877669       0.98993407       0.00000000
Si       3.50440973       1.54383588      -0.24895905       0.00000000
