10
Lattice="16.28999089631971 0.0 0.0 0.0 16.28999089631971 0.0 0.0 0.0 34.51530692428229" Properties=species:S:1:pos:R:3:initial_magmoms:R:1 pbc="T T T"
Si      -2.15132256      -0.16532721      -0.91299941       0.00000000
Si       0.51424272       2.29677597       0.02902739       0.00000000
Si       0.09705582      -1.04428674       2.14039892       0.00000000
Si       1.73452662      -1.14117966      -1.27934508       0.00000000
Si       0.11113038       2.62397691      -2.27286875       0.00000000
Si       2.78718220       2.10948984       0.45667228       0.00000000
Si       3.45604309       0.35761437      -0.90678665       0.00000000
Si      -2.65971717      -2.40213969      -0.90223063       0.00000000
Si      -0.14377554      -3.38524119       1.83935625       0.00000000
Si      -3.79066671       0.92222577       0.37953053       0.00000000
