10
Lattice="16.28999089631971 0.0 0.0 0.0 16.28999089631971 0.0 0.0 0.0 34.51530692428229" Properties=species:S:1:pos:R:3:initial_magmoms:R:1 pbc="T T T"
Si       1.35772263       1.35736425       1.35745326       0.00000000
Si      -1.35856971       1.35452979      -1.35990385       0.00000000
Si      -1.35754344      -1.35791811       1.35766036       0.00000000
Si       1.36018242      -1.35883035      -1.36211283       0.00000000
Si      -2.71352304      -2.71419093      -0.00044870       0.00000000
Si       0.00065160       2.71448727       2.71466492       0.00000000
Si       2.71461784       2.71484677       0.00000000       0.00000000
Si      -2.71479366      -0.00102627       2.71487201       0.00000000
Si      -2.71572219       2.71407120      -0.00003452       0.00000000
Si       2.71488127      -0.00017919       2.71497556       0.00000000
