10
Lattice="16.28999089631971 0.0 0.0 0.0 16.28999089631971 0.0 0.0 0.0 34.51530692428229" Properties=species:S:1:pos:R:3:initial_magmoms:R:1 pbc="T T T"
Si      -1.14515442      -1.89941400       0.77573196       0.00000000
Si       1.31678586      -0.50471307      -1.89962001       0.00000000
Si      -1.85973156       1.44296820      -0.27570843       0.00000000
Si       1.41172398       0.59373792       1.83631890       0.00000000
Si       0.11173311       0.12623121       3.63418773       0.00000000
Si       2.79274131      -2.12781609      -1.06089758       0.00000000
Si       2.17999296       1.58985513      -2.48589734       0.00000000
Si      -1.68025160       2.97005796       1.54614855       0.00000000
Si      -0.01852173      -2.16613017       3.08501437       0.00000000
Si      -0.69340014      -3.61712934      -0.81204208       0.00000000
