10
Lattice="16.28999089631971 0.0 0.0 0.0 16.28999089631971 0.0 0.0 0.0 34.51530692428229" Properties=species:S:1:pos:R:3:initial_magmoms:R:1 pbc="T T T"
Si      -1.35689184      -1.35666378       1.35828163       0.00000000
Si       1.35760860       1.35884664       1.35817809       0.00000000
Si      -1.35569941       1.36161594      -1.35942064       0.00000000
Si       1.36099692      -1.35787901      -1.36131898       0.00000000
Si      -2.71499296      -2.71362372       0.00072482       0.00000000
Si       0.00050499      -2.71330709       2.71535523       0.00000000
Si      -2.71435006       0.00097740       2.71552781       0.00000000
Si       2.71490769       2.71557558       0.00082837       0.00000000
Si       2.71627605      -2.71442102       0.00169125       0.00000000
Si       2.71595025       0.00065160       2.71483750       0.00000000
