10
Lattice="16.28999089631971 0.0 0.0 0.0 16.28999089631971 0.0 0.0 0.0 34.51530692428229" Properties=species:S:1:pos:R:3:initial_magmoms:R:1 pbc="T T T"
Si      -1.35407587       1.35037584      -1.36173317       0.00000000
Si       1.36302024      -1.36304946      -1.36000740       0.00000000
Si       1.35208639       1.36008468       1.37498705       0.00000000
Si      -1.34762503      -1.37600001       1.37978468       0.00000000
Si       2.63502651      -0.10267587       2.69543989       0.00000000
Si      -2.70777487       2.70562239      -0.00265768       0.00000000
Si       0.00441855       2.70852201      -2.71763324       0.00000000
Si       2.71939242       2.70839169       0.00110449       0.00000000
Si      -2.71044643      -0.00656487      -2.71794388       0.00000000
Si      -2.71003918      -2.72134224      -0.00024161       0.00000000
