10
Lattice="16.28999089631971 0.0 0.0 0.0 16.28999089631971 0.0 0.0 0.0 34.51530692428229" Properties=species:S:1:pos:R:3:initial_magmoms:R:1 pbc="T T T"
Si       0.01514156       2.29967559      -0.31046536       0.00000000
Si       0.35289679      -0.90157005       2.12372802       0.00000000
Si      -2.18345851      -0.83166966      -0.27160110       0.00000000
Si       1.85930313      -0.74769471      -1.32059090       0.00000000
Si      -0.10040504      -3.08537487       1.03518366       0.00000000
Si       2.33599740       2.66304033      -0.44114038       0.00000000
Si       3.51327570       0.61462170      -0.37849507       0.00000000
Si      -2.37804256      -2.67520896       1.10103891       0.00000000
Si      -1.31393089       0.09062127       3.53043466       0.00000000
Si      -0.98508466       2.69421939      -2.47450728       0.00000000
