10
Lattice="16.28999089631971 0.0 0.0 0.0 16.28999089631971 0.0 0.0 0.0 34.51530692428229" Properties=species:S:1:pos:R:3:initial_magmoms:R:1 pbc="T T T"
Si       1.35739683      -1.35664331       1.35707360       0.00000000
Si       1.35689184       1.35666378      -1.35828163       0.00000000
Si      -1.35745822       1.35764118       1.35724617       0.00000000
Si      -1.35810112      -1.35695994      -1.35755681       0.00000000
Si      -0.00070047       2.71318095       2.71255949       0.00000000
Si      -2.71517552       0.00104908      -2.71307722       0.00000000
Si      -2.71504520      -0.00173000       2.71356043       0.00000000
Si      -0.00022969      -2.71471940       2.71442331       0.00000000
Si      -2.71499633      -2.71444247      -0.00010355       0.00000000
Si       2.71485882      -2.71463795      -0.00010355       0.00000000
