10
Lattice="16.28999089631971 0.0 0.0 0.0 16.28999089631971 0.0 0.0 0.0 34.51530692428229" Properties=species:S:1:pos:R:3:initial_magmoms:R:1 pbc="T T T"
Si      -0.56879793       1.84248045      -1.24993802       0.00000000
Si       0.16635348      -2.13599367      -0.90512991       0.00000000
Si       2.30332455       0.12318498       0.44514416       0.00000000
Si      -1.11980881      -0.25475931       2.05393803       0.00000000
Si       0.73743201      -1.30727250       2.94325993       0.00000000
Si       0.80866818      -2.97481464       1.22484538       0.00000000
Si       2.36278305       0.35264592       2.75822326       0.00000000
Si       1.18706859       1.96928181      -2.84844633       0.00000000
Si      -1.02056035       3.50093277       0.39968748       0.00000000
Si      -2.84132528      -1.75355334       1.68137960       0.00000000
