10
Lattice="16.28999089631971 0.0 0.0 0.0 16.28999089631971 0.0 0.0 0.0 34.51530692428229" Properties=species:S:1:pos:R:3:initial_magmoms:R:1 pbc="T T T"
Si       1.25271729       1.88045244      -0.68381764       0.00000000
Si      -2.21927467       0.47609154      -0.82619336       0.00000000
Si       0.14859738      -2.21921928      -1.30357484       0.00000000
Si      -0.06291198       0.67841334       2.63945603       0.00000000
Si       1.88796213      -1.03355163       2.82628749       0.00000000
Si      -3.29541357      -1.57494978      -0.05601837       0.00000000
Si       3.54341709       1.36169739      -0.19093878       0.00000000
Si      -3.05890851       2.24749872       0.64112218       0.00000000
Si       0.97989237       2.08616256      -3.08591177       0.00000000
Si      -1.83160199      -3.36675204      -0.82312150       0.00000000
