10
Lattice="16.28999089631971 0.0 0.0 0.0 16.28999089631971 0.0 0.0 0.0 34.51530692428229" Properties=species:S:1:pos:R:3:initial_magmoms:R:1 pbc="T T T"
Si       1.82949732      -1.36575360       0.49308595       0.00000000
Si      -1.98019937      -1.14753276       0.48045334       0.00000000
Si      -0.17847324       0.39565152      -2.30520961       0.00000000
Si      -0.14859738       2.21921928       1.30357484       0.00000000
Si       1.44687780       2.05556994      -2.49024627       0.00000000
Si      -2.36787205       2.69531082       0.47738148       0.00000000
Si       2.90771613      -1.47380517      -1.60606716       0.00000000
Si      -2.15967933      -2.67462252      -1.34140364       0.00000000
Si      -3.44401095       0.64426950       1.24755647       0.00000000
Si       1.11177621      -3.52385280       0.77062369       0.00000000
