10
Lattice="16.28999089631971 0.0 0.0 0.0 16.28999089631971 0.0 0.0 0.0 34.51530692428229" Properties=species:S:1:pos:R:3:initial_magmoms:R:1 pbc="T T T"
Si      -0.88997157      -1.73340261      -1.20037402       0.00000000
Si       0.31802967      -1.01874402       2.07664912       0.00000000
Si       1.82560401       1.04190840      -1.09096043       0.00000000
Si      -2.17291170      -0.27064206      -2.52082685       0.00000000
Si       0.54291312       2.43379116      -2.52144813       0.00000000
Si      -0.50782446       0.78027471       3.53854576       0.00000000
Si      -2.33985487      -2.80505655       0.52428781       0.00000000
Si       2.63743245      -1.47129651       2.14612847       0.00000000
Si      -3.58256915       1.14231996      -1.04498602       0.00000000
Si      -0.97441893       3.66541290      -1.03884229       0.00000000
