10
Lattice="10.86 0.0 0.0 0.0 10.86 0.0 0.0 0.0 10.86" Properties=species:S:1:pos:R:3:initial_magmoms:R:1 pbc="T T T"
Si       1.12854948      -1.30533942      -1.57883766       0.00000000
Si      -1.58645052      -1.30533942       1.13616234       0.00000000
Si       1.47012906       1.33778910       1.26172566       0.00000000
Si      -1.58645052       1.40966058      -1.57883766       0.00000000
Si      -0.07722546      -2.46114750       2.61795504       0.00000000
Si       2.51279766      -2.67259170      -0.19718502       0.00000000
Si       2.51404656       2.74200882      -0.18833412       0.00000000
Si      -0.06221694       2.76029706       2.55329460       0.00000000
Si       2.48604948       0.05216058      -2.93633766       0.00000000
Si      -2.94395052       0.05216058       2.49366234       0.00000000
