10
Lattice="10.86 0.0 0.0 0.0 10.86 0.0 0.0 0.0 10.86" Properties=species:S:1:pos:R:3:initial_magmoms:R:1 pbc="T T T"
Si       1.34719386      -1.18155714      -1.23735582       0.00000000
Si      -1.36780614       1.53344286      -1.23735582       0.00000000
Si      -1.39081848      -1.01383530       1.69879722       0.00000000
Si       1.34719386       1.53344286       1.47764418       0.00000000
Si      -0.01030614      -2.53905714      -2.59485582       0.00000000
Si      -0.03038628      -2.32358388       2.82386064       0.00000000
Si      -2.49972222      -2.67112560      -0.16119498       0.00000000
Si       2.70469386      -2.53905714       0.12014418       0.00000000
Si       2.70469386       0.17594286      -2.59485582       0.00000000
Si      -2.72530614       0.17594286      -2.59485582       0.00000000
