10
Lattice="10.86 0.0 0.0 0.0 10.86 0.0 0.0 0.0 10.86" Properties=species:S:1:pos:R:3:initial_magmoms:R:1 pbc="T T T"
Si      -1.27088064      -1.42877418       1.18154628       0.00000000
Si       1.44411936       1.28622582       1.18154628       0.00000000
Si      -1.27088064       1.28622582      -1.53345372       0.00000000
Si      -2.62838064      -0.07127418       2.53904628       0.00000000
Si       0.08661936       2.64372582       2.53904628       0.00000000
Si      -2.62838064       2.64372582      -0.17595372       0.00000000
Si       0.08661936      -2.78627418       2.53904628       0.00000000
Si       2.66792190      -0.01290168      -2.67381888       0.00000000
Si       2.80161936      -0.07127418       2.53904628       0.00000000
Si      -2.38666962      -0.19612074      -2.96370486       0.00000000
