10
Lattice="10.86 0.0 0.0 0.0 10.86 0.0 0.0 0.0 10.86" Properties=species:S:1:pos:R:3:initial_magmoms:R:1 pbc="T T T"
Si       1.13191608      -1.22543154      -1.07616084       0.00000000
Si      -1.58308392       1.48956846      -1.07616084       0.00000000
Si      -1.58308392      -1.22543154       1.63883916       0.00000000
Si       1.10890374       1.65729030       1.85999220       0.00000000
Si       2.48941608       0.13206846      -2.43366084       0.00000000
Si      -0.22558392      -2.58293154      -2.43366084       0.00000000
Si       2.48941608      -2.58293154       0.28133916       0.00000000
Si       2.49972222       2.67112560       0.16119498       0.00000000
Si      -0.22558392       2.84706846      -2.43366084       0.00000000
Si      -2.94058392       0.13206846      -2.43366084       0.00000000
