10
Lattice="16.2900001489832 0.0 0.0 0.0 16.2900001489832 0.0 0.0 0.0 29.46693228775786" Properties=species:S:1:pos:R:3:initial_magmoms:R:1 pbc="T T T"
Si       0.41321214      -1.86036689       1.38918906       0.00000000
Si      -0.54384166       1.53694522       1.74514960       0.00000000
Si      -1.49809357      -1.44907696      -1.20991224       0.00000000
Si       2.02531943       0.84212785      -1.06110423       0.00000000
Si      -0.68722624      -3.53515809       0.04873831       0.00000000
Si       0.26610595       3.54267919       0.77795648       0.00000000
Si       2.79554322      -2.08420778       1.38114458       0.00000000
H        0.37652218       2.46422090      -2.84335270       0.00000000
Si       1.42035932       1.43291728      -3.23859266       0.00000000
Si      -0.71390926      -1.51742980       3.44506745       0.00000000
