10
Lattice="16.2900001489832 0.0 0.0 0.0 16.2900001489832 0.0 0.0 0.0 29.46693228775786" Properties=species:S:1:pos:R:3:initial_magmoms:R:1 pbc="T T T"
Si      -0.34837794      -2.26356068      -0.82041833       0.00000000
Si      -2.16381701       1.02413602       0.47462388       0.00000000
Si       1.20243121       1.07655724      -1.83452280       0.00000000
Si       1.04355370       0.15529257       2.33283810       0.00000000
H        1.42188895      -2.40585383       1.66087417       0.00000000
Si      -3.11811780      -0.92610280       1.47655851       0.00000000
Si       0.50692851       2.43300926       2.69321868       0.00000000
Si       1.30925240      -3.38452935       0.51360863       0.00000000
Si      -2.29980593      -2.91195807       0.42665171       0.00000000
Si       2.55192138       2.63945243      -0.73142819       0.00000000
