10
Lattice="16.2900001489832 0.0 0.0 0.0 16.2900001489832 0.0 0.0 0.0 29.46693228775786" Properties=species:S:1:pos:R:3:initial_magmoms:R:1 pbc="T T T"
H        0.15539031      -1.43801605      -0.42473636       0.00000000
Si       1.94163770       1.20256039       0.60383638       0.00000000
Si      -0.21134646       1.33288039      -1.99273076       0.00000000
Si      -1.79219324       0.28385325       1.63084737       0.00000000
H       -2.23780619      -1.32460507      -0.95069164       0.00000000
H        2.37618974       2.05931666      -0.89470446       0.00000000
H        2.02018808      -2.48461598       0.93619391       0.00000000
Si      -1.75106099       2.83509534      -0.97464825       0.00000000
Si       0.89103043       2.90092323       1.90094127       0.00000000
Si      -3.28948860       1.51467679       0.21219138       0.00000000
