10
Lattice="16.2900001489832 0.0 0.0 0.0 16.2900001489832 0.0 0.0 0.0 29.46693228775786" Properties=species:S:1:pos:R:3:initial_magmoms:R:1 pbc="T T T"
Si      -1.36627489      -1.45734251       1.27653697       0.00000000
Si      -1.44686152       1.26610768      -1.41302780       0.00000000
Si       1.25406937      -1.43759414      -1.43604148       0.00000000
Si       1.35488818       1.43141860       1.43636561       0.00000000
H       -0.38794635      -2.45374155       1.88237710       0.00000000
Si      -2.85974211       2.49758282       0.04923924       0.00000000
Si       2.68141547       2.70431921      -0.03895528       0.00000000
Si      -0.09238059       2.63801891      -2.82343305       0.00000000
Si       2.61944831      -0.09842418      -2.86062032       0.00000000
Si       2.62461224      -2.85947670      -0.12470406       0.00000000
