10
Lattice="16.2900001489832 0.0 0.0 0.0 16.2900001489832 0.0 0.0 0.0 29.46693228775786" Properties=species:S:1:pos:R:3:initial_magmoms:R:1 pbc="T T T"
H       -0.99341308      -0.99214246      -0.56809299       0.00000000
Si       1.31657410      -1.38616498       1.35279739       0.00000000
Si      -1.46510632       1.37138995       1.22915415       0.00000000
Si       1.29666772       1.19140174      -1.61811765       0.00000000
H       -0.29887263      -1.36748035      -2.50628046       0.00000000
Si      -0.82344322      -2.76485286      -2.27346223       0.00000000
Si      -0.37742301       2.31969602      -2.83863799       0.00000000
Si       2.55536345       2.65429262      -0.18080910       0.00000000
Si       2.61001640      -2.69640553      -0.11388969       0.00000000
Si      -0.10228491       2.69956253       2.62405979       0.00000000
