10
Lattice="16.2900001489832 0.0 0.0 0.0 16.2900001489832 0.0 0.0 0.0 29.46693228775786" Properties=species:S:1:pos:R:3:initial_magmoms:R:1 pbc="T T T"
Si      -1.34187247      -1.34263810       1.41877386       0.00000000
Si      -1.37547874       1.35351982      -1.38889439       0.00000000
Si       1.36228384       1.36790389       1.39390376       0.00000000
Si       1.32760243      -1.39558060      -1.40380465       0.00000000
Si      -2.66111813      -2.69153156      -0.01688455       0.00000000
Si       2.71805168      -0.00553860      -2.69033092       0.00000000
Si      -2.71010216       2.73131175       0.02006698       0.00000000
Si       2.71902908      -2.73111626      -0.02095099       0.00000000
Si      -0.01211976       2.72924292      -2.73954069       0.00000000
Si       2.73069272       2.74895382       0.02436915       0.00000000
