10
Lattice="16.2900001489832 0.0 0.0 0.0 16.2900001489832 0.0 0.0 0.0 29.46693228775786" Properties=species:S:1:pos:R:3:initial_magmoms:R:1 pbc="T T T"
Si      -0.35823339      -0.80632243       2.14380772       0.00000000
Si       1.15401619      -1.82011430      -1.04200966       0.00000000
Si       2.07563924       1.12712140       0.40914835       0.00000000
Si      -1.87993118       1.06689727      -1.11667887       0.00000000
Si      -0.31765500       2.10724184      -2.56827888       0.00000000
Si       2.50830164      -0.70636699      -2.59052642       0.00000000
Si       1.69399712      -1.80936290       2.71717529       0.00000000
Si       2.81758359       0.38452545       2.52661264       0.00000000
Si       2.74885608      -2.53195472       0.73599557       0.00000000
Si      -2.92379439      -0.64576819      -2.42212290       0.00000000
