10
Lattice="16.2900001489832 0.0 0.0 0.0 16.2900001489832 0.0 0.0 0.0 29.46693228775786" Properties=species:S:1:pos:R:3:initial_magmoms:R:1 pbc="T T T"
Si       1.35581671       1.37147140       1.37020351       0.00000000
Si      -1.34203537       1.36738261      -1.39769027       0.00000000
Si       1.36674730      -1.34918668      -1.40047784       0.00000000
Si      -1.34185618      -1.34592868       1.43603264       0.00000000
Si      -2.68051952      -2.70400970       0.02207663       0.00000000
Si       2.71321355      -2.70896186       0.00581088       0.00000000
Si      -2.71632494       2.70601337       0.00369810       0.00000000
Si       2.72036486       2.72559395      -0.02698287       0.00000000
Si      -0.04533507       2.70658352       2.74739953       0.00000000
Si       2.72455139       0.02368566       2.75638694       0.00000000
