10
Lattice="16.2900001489832 0.0 0.0 0.0 16.2900001489832 0.0 0.0 0.0 29.46693228775786" Properties=species:S:1:pos:R:3:initial_magmoms:R:1 pbc="T T T"
Si       1.34187247       1.34263810      -1.41877386       0.00000000
Si      -1.31924566      -1.34889346      -1.43565841       0.00000000
Si      -1.35799957       1.35576784       1.39867741       0.00000000
Si       1.35674524      -1.36461331       1.39449310       0.00000000
Si      -2.66455044      -2.68661198       0.01255291       0.00000000
Si       2.70415631       2.71054199      -0.02487009       0.00000000
Si       2.72339480      -2.71642268      -0.00642379       0.00000000
Si      -2.71495007       2.73202850       0.01935977       0.00000000
Si      -2.68458062       0.04872339      -2.79658868       0.00000000
Si       2.66947490      -0.05294250      -2.82257851       0.00000000
