10
Lattice="16.2900001489832 0.0 0.0 0.0 16.2900001489832 0.0 0.0 0.0 29.46693228775786" Properties=species:S:1:pos:R:3:initial_magmoms:R:1 pbc="T T T"
Si       1.56227617       1.04034457      -1.45160002       0.00000000
Si      -1.04386321      -1.71266546      -1.30544403       0.00000000
Si       1.87993118      -1.06689727       1.11667887       0.00000000
Si      -2.00893169       1.85085353       0.29393265       0.00000000
H       -0.78007924       0.95096134       3.12051866       0.00000000
Si      -2.45879633      -0.42049377      -2.68623501       0.00000000
Si       0.21826971       2.35657658      -2.82107570       0.00000000
Si       2.55650375       2.86655133      -0.30957959       0.00000000
Si      -1.02548809       3.55064988      -1.16494570       0.00000000
Si      -2.38847240      -3.14072832       0.04918031       0.00000000
