10
Lattice="16.2900001489832 0.0 0.0 0.0 16.2900001489832 0.0 0.0 0.0 29.46693228775786" Properties=species:S:1:pos:R:3:initial_magmoms:R:1 pbc="T T T"
H        0.57928870      -0.53582697       1.53001153       0.00000000
Si       1.53231886      -0.79249222      -1.66355566       0.00000000
Si      -2.00824751      -1.26226324       0.43198523       0.00000000
Si      -0.29711331       2.40686381      -0.11833920       0.00000000
H        2.02733939       0.55392517       2.43523569       0.00000000
Si       0.14473665      -1.39258324       3.02855237       0.00000000
H        3.15185439       1.17731089      -0.18959024       0.00000000
Si      -1.69324778       2.75108781      -1.93907148       0.00000000
Si      -0.61665796       1.33597549      -3.48387540       0.00000000
Si      -1.74024443      -0.85791286      -3.29331275       0.00000000
