10
Lattice="16.2900001489832 0.0 0.0 0.0 16.2900001489832 0.0 0.0 0.0 29.46693228775786" Properties=species:S:1:pos:R:3:initial_magmoms:R:1 pbc="T T T"
Si      -2.05223051       1.00304047      -0.57336757       0.00000000
Si       1.05485896      -0.72259183      -1.98117973       0.00000000
Si       1.12358647       2.19388835      -0.19056265       0.00000000
Si      -0.92370817      -1.51894477       1.73739979       0.00000000
Si       2.82520731      -1.77256379       0.14556665       0.00000000
Si      -2.03913335       2.60622083       1.10097299       0.00000000
Si       3.27256329       0.06542064       1.62975709       0.00000000
Si      -1.69399712       1.80936290      -2.71717529       0.00000000
Si       0.38164212       2.93648430      -2.30802694       0.00000000
Si      -0.26800308      -0.40435038       3.72529798       0.00000000
