10
Lattice="16.2900001489832 0.0 0.0 0.0 16.2900001489832 0.0 0.0 0.0 29.46693228775786" Properties=species:S:1:pos:R:3:initial_magmoms:R:1 pbc="T T T"
Si      -1.36891387       1.36096435      -1.37352738       0.00000000
Si      -1.37037997      -1.36694278       1.37155899       0.00000000
Si       1.35307999      -1.35980776      -1.39848293       0.00000000
Si       1.32805855       1.38205990       1.40370741       0.00000000
Si       2.70114266       2.72090586       0.00931744       0.00000000
Si      -2.72005535       2.70482339       0.05029416       0.00000000
Si       2.69664662      -2.73189819      -0.00414600       0.00000000
Si       2.68767083       0.00645084       2.74769419       0.00000000
Si      -2.71795394      -0.01946655      -2.75528488       0.00000000
Si      -2.66225843      -0.00542457       2.80995782       0.00000000
