10
Lattice="16.2900001489832 0.0 0.0 0.0 16.2900001489832 0.0 0.0 0.0 29.46693228775786" Properties=species:S:1:pos:R:3:initial_magmoms:R:1 pbc="T T T"
Si      -1.39681864      -1.30642543      -1.39779340       0.00000000
Si       1.35148211      -1.35513253       1.40627988       0.00000000
Si       1.36425347       1.31144275      -1.43657188       0.00000000
Si      -1.37184607       1.33902172       1.41025791       0.00000000
Si       2.67254557       2.69922044       0.00415484       0.00000000
Si      -2.73976626      -2.65502567       0.02339674       0.00000000
Si       2.72167947      -2.68685633      -0.00327083       0.00000000
Si      -2.74212831       2.69034239       0.02822932       0.00000000
Si      -0.08211789      -2.70029558      -2.78147214       0.00000000
Si       0.01185912       2.71134020      -2.79010595       0.00000000
