10
Lattice="16.2900001489832 0.0 0.0 0.0 16.2900001489832 0.0 0.0 0.0 29.46693228775786" Properties=species:S:1:pos:R:3:initial_magmoms:R:1 pbc="T T T"
H       -1.27931887      -0.16730808      -0.76817346       0.00000000
Si      -0.81831187       1.98585527       1.04990680       0.00000000
Si       1.95142799       0.64839739      -1.24707004       0.00000000
Si       0.42103134      -2.00257207       1.28543599       0.00000000
H       -1.30051216       2.05987703      -1.06746909       0.00000000
H       -0.28194732       1.99129613       2.47501604       0.00000000
H       -3.16517961      -1.74973498      -0.38348266       0.00000000
Si       3.60905833      -0.47257128       0.08695692       0.00000000
Si       2.29980593       2.91195807      -0.42665171       0.00000000
Si       2.79911073      -2.47830524       1.05415004       0.00000000
