10
Lattice="16.2900001489832 0.0 0.0 0.0 16.2900001489832 0.0 0.0 0.0 29.46693228775786" Properties=species:S:1:pos:R:3:initial_magmoms:R:1 pbc="T T T"
Si      -1.40012551      -1.40398624      -1.28449305       0.00000000
Si       1.34755768      -1.37670049       1.39237148       0.00000000
Si      -1.39274614       1.32605488       1.42481458       0.00000000
Si       1.32269914       1.31442382      -1.52108304       0.00000000
Si       2.59597442       2.62200584       0.03789447       0.00000000
Si      -2.76977569       0.02103039      -2.56715914       0.00000000
Si       2.74960542      -2.68830940      -0.04856150       0.00000000
Si      -0.05338233      -2.77131673      -2.70226503       0.00000000
Si      -2.75808110       2.72367173       0.06388431       0.00000000
Si       2.64989432      -0.04147434       2.85404919       0.00000000
