10
Lattice="16.2900001489832 0.0 0.0 0.0 16.2900001489832 0.0 0.0 0.0 29.46693228775786" Properties=species:S:1:pos:R:3:initial_magmoms:R:1 pbc="T T T"
Si      -1.31861361       1.34794864      -1.45366270       0.00000000
Si       1.35746200      -1.36710568      -1.40492440       0.00000000
Si       1.37652130       1.36528120       1.39416897       0.00000000
Si      -1.39493715      -1.34565664       1.41176073       0.00000000
Si      -2.68713115       2.69936705      -0.07290119       0.00000000
Si       0.03404610      -2.70303459       2.72312761       0.00000000
Si      -2.70759220      -2.73085465      -0.00769087       0.00000000
Si       2.72122823      -2.72838525       0.00020627       0.00000000
Si      -0.03635928       2.59675634       2.85643602       0.00000000
Si       2.73100224       2.73719244      -0.01623628       0.00000000
