10
Lattice="16.2900001489832 0.0 0.0 0.0 16.2900001489832 0.0 0.0 0.0 29.46693228775786" Properties=species:S:1:pos:R:3:initial_magmoms:R:1 pbc="T T T"
Si       1.32419782      -1.39094610      -1.36991768       0.00000000
Si       1.37122705       1.33415264       1.40362785       0.00000000
Si      -1.34680834      -1.37410224       1.40483600       0.00000000
Si      -1.23615037       1.37507638      -1.50596651       0.00000000
Si      -2.63819810       2.68668529      -0.06503352       0.00000000
Si       2.71200809       2.70330109      -0.00577552       0.00000000
Si       2.69848739      -0.02367133      -2.72457149       0.00000000
Si      -2.66708027      -0.02684527      -2.77404647       0.00000000
Si      -2.69770547      -2.75567344       0.03141175       0.00000000
Si       2.71979471      -2.74552477       0.00636486       0.00000000
