10
Lattice="16.2900001489832 0.0 0.0 0.0 16.2900001489832 0.0 0.0 0.0 29.46693228775786" Properties=species:S:1:pos:R:3:initial_magmoms:R:1 pbc="T T T"
Si      -1.37639098       1.37153330       1.34045075       0.00000000
Si       1.35731539      -1.37267523       1.37922923       0.00000000
Si       1.41517747       1.40139287      -1.29188925       0.00000000
Si      -1.38991168      -1.35543911      -1.37834522       0.00000000
H       -0.89480971       1.79541540      -3.21277963       0.00000000
Si      -0.00562005      -2.72947423      -2.65476433       0.00000000
Si      -2.71538012       2.68967125      -0.12779809       0.00000000
Si       0.09860337       2.78755786      -2.64468664       0.00000000
Si       2.72487719      -2.71829929      -0.01387893       0.00000000
Si      -0.01345554       2.71283563       2.75100333       0.00000000
