10
Lattice="16.2900001489832 0.0 0.0 0.0 16.2900001489832 0.0 0.0 0.0 29.46693228775786" Properties=species:S:1:pos:R:3:initial_magmoms:R:1 pbc="T T T"
Si       1.37626066       1.33667596      -1.37071329       0.00000000
Si       1.39087279      -1.40973661       1.28469931       0.00000000
Si      -1.34644996      -1.38033316      -1.37030075       0.00000000
Si      -1.43508385       1.40387221       1.30694685       0.00000000
Si       0.03658734      -2.52348392       2.83321607       0.00000000
Si      -2.65500938      -2.71467965       0.08424596       0.00000000
Si       2.74999638       2.64082079       0.05654704       0.00000000
Si       0.01071882       2.68201820      -2.76753428       0.00000000
Si      -2.71518464      -0.03254742      -2.75648418       0.00000000
Si       2.70845687      -0.04390155      -2.76682707       0.00000000
