10
Lattice="16.2900001489832 0.0 0.0 0.0 16.2900001489832 0.0 0.0 0.0 29.46693228775786" Properties=species:S:1:pos:R:3:initial_magmoms:R:1 pbc="T T T"
Si      -1.31325094      -1.20078478      -1.50853013       0.00000000
Si      -1.74591335       0.63270361       1.49114464       0.00000000
Si       0.92870920      -1.67671343       1.42319390       0.00000000
Si       1.37095012       1.42762303      -1.34098115       0.00000000
Si      -2.66753639      -2.31453209       0.03998663       0.00000000
Si      -1.07269651      -3.02637252       1.81799185       0.00000000
Si      -1.00396900      -0.10989234       3.60860893       0.00000000
Si       2.68617215      -2.68965821       0.16189133       0.00000000
Si       0.04502556      -2.61786818      -2.79526266       0.00000000
Si       2.66012444       0.08299755      -2.80478048       0.00000000
