10
Lattice="16.2900001489832 0.0 0.0 0.0 16.2900001489832 0.0 0.0 0.0 29.46693228775786" Properties=species:S:1:pos:R:3:initial_magmoms:R:1 pbc="T T T"
Si      -0.88052338       0.84059659      -0.88132648       0.00000000
H        0.95311162      -1.21357895       0.02360301       0.00000000
H        1.14526846       0.56546826       2.33802428       0.00000000
Si       1.89739406      -2.17185450      -0.64620983       0.00000000
H       -0.74059228      -1.01695865       2.72271508       0.00000000
Si      -1.64025640       2.54874320       0.54855641       0.00000000
Si       0.56091358       1.99268404      -2.34701169       0.00000000
Si      -2.17613225      -0.63268907      -2.16051548       0.00000000
Si       0.62638309       3.41468703       0.73122192       0.00000000
H        1.12407517       2.79265337       2.03872864       0.00000000
