10
Lattice="16.2900001489832 0.0 0.0 0.0 16.2900001489832 0.0 0.0 0.0 29.46693228775786" Properties=species:S:1:pos:R:3:initial_magmoms:R:1 pbc="T T T"
Si       1.11364957      -0.53137980       1.97590514       0.00000000
Si       1.81758935       0.88207093      -1.16356076       0.00000000
Si      -0.99422758      -1.82620676      -1.14202043       0.00000000
Si      -1.74382823       1.68767660       0.31632752       0.00000000
Si       0.47327337       2.23267484      -2.53922449       0.00000000
Si      -0.69375853       0.09370008       3.36771676       0.00000000
Si      -2.33823404      -0.50997474      -2.51149611       0.00000000
Si       1.39906666      -2.80632720       1.83540681       0.00000000
Si      -0.89407666       3.47306537      -1.02568498       0.00000000
Si      -3.58199184       0.68409856      -0.85536611       0.00000000
