10
Lattice="16.2900001489832 0.0 0.0 0.0 16.2900001489832 0.0 0.0 0.0 29.46693228775786" Properties=species:S:1:pos:R:3:initial_magmoms:R:1 pbc="T T T"
Si       1.94991302       1.20360295      -0.28854020       0.00000000
Si      -1.92344177       0.94465711       1.09563948       0.00000000
Si       0.68400082      -1.25807671       1.93630159       0.00000000
Si      -0.69212953      -1.32287833      -1.90680519       0.00000000
Si      -1.89387542      -2.77508298      -0.46731608       0.00000000
Si      -3.16206822      -1.04495464       0.70959320       0.00000000
Si       0.00377928      -3.35010369       0.97685827       0.00000000
Si       1.96301018       2.80678332       1.38580036       0.00000000
Si      -1.11946510       1.35205372       3.27519059       0.00000000
Si       2.30814641       2.00992538      -2.43234793       0.00000000
