10
Lattice="16.2900001489832 0.0 0.0 0.0 16.2900001489832 0.0 0.0 0.0 29.46693228775786" Properties=species:S:1:pos:R:3:initial_magmoms:R:1 pbc="T T T"
Si      -1.32921514       1.35614251       1.36673525       0.00000000
Si      -1.26690589      -1.30052845      -1.48083122       0.00000000
Si       1.24092334       1.31318578      -1.52158398       0.00000000
Si       1.37384974      -1.44397819       1.29969798       0.00000000
Si       2.29970819      -0.50958378      -2.56486072       0.00000000
Si       0.53698356      -2.17440551      -2.77540195       0.00000000
Si      -2.68961749      -0.08105904       2.66884952       0.00000000
Si       2.71256195       2.64419282      -0.18122163       0.00000000
Si      -2.63785439       2.73681777      -0.05507370       0.00000000
Si       0.07815942       2.67933035       2.71661542       0.00000000
