10
Lattice="16.2900001489832 0.0 0.0 0.0 16.2900001489832 0.0 0.0 0.0 29.46693228775786" Properties=species:S:1:pos:R:3:initial_magmoms:R:1 pbc="T T T"
Si       1.36570474      -1.33121008      -1.46919178       0.00000000
Si      -1.27558846       1.23954579      -1.64675951       0.00000000
Si      -1.32484942      -1.54674307       1.31611106       0.00000000
Si       0.81998974       1.89908066       1.33149280       0.00000000
H       -2.26913186      -0.58846752       1.98592390       0.00000000
H        2.92181841      -0.19314180       1.53416636       0.00000000
Si      -2.66132990       2.61779547      -0.38469080       0.00000000
Si      -2.68670972      -2.59857209      -0.33607036       0.00000000
Si      -1.00170469       3.55178262       0.98790837       0.00000000
H       -3.22224348       0.62511142       1.96232089       0.00000000
