10
Lattice="16.2900001489832 0.0 0.0 0.0 16.2900001489832 0.0 0.0 0.0 29.46693228775786" Properties=species:S:1:pos:R:3:initial_magmoms:R:1 pbc="T T T"
Si       0.49651920       0.26926605      -2.29559189       0.00000000
Si       0.33757767      -2.33207642       0.40534712       0.00000000
Si      -2.35600643       0.55807586       0.40546499       0.00000000
Si       1.45883467       1.64228614       1.10338928       0.00000000
H       -1.18816003      -1.31281111       2.52835119       0.00000000
H        1.89622118      -0.24068475      -2.47389630       0.00000000
Si      -2.20099079      -0.17005131       2.65888970       0.00000000
Si      -0.33023088       2.76252339       2.14884657       0.00000000
Si       0.41791995       2.64150497      -2.42126836       0.00000000
Si      -2.18870813       2.87290443       0.65001106       0.00000000
