10
Lattice="16.2900001489832 0.0 0.0 0.0 16.2900001489832 0.0 0.0 0.0 29.46693228775786" Properties=species:S:1:pos:R:3:initial_magmoms:R:1 pbc="T T T"
Si       0.28541709      -2.27494739      -0.14049833       0.00000000
Si      -1.11364957       0.53137980      -1.97590514       0.00000000
Si      -1.80740810       0.62507989       1.39181161       0.00000000
Si       2.22721769       0.92722681       0.45231741       0.00000000
Si      -0.39980547       0.75184867       3.25780510       0.00000000
Si       0.70393978       1.41345073      -3.13946590       0.00000000
Si       2.06580008       2.46527975      -1.48728447       0.00000000
Si       1.91114282       1.35013150       2.84709500       0.00000000
H        1.12151764       3.42355530      -0.81747164       0.00000000
Si       1.02736144      -3.01754334       1.97696595       0.00000000
