10
Lattice="16.2900001489832 0.0 0.0 0.0 16.2900001489832 0.0 0.0 0.0 29.46693228775786" Properties=species:S:1:pos:R:3:initial_magmoms:R:1 pbc="T T T"
Si      -0.52457058      -1.39737250       0.23281823       0.00000000
H       -0.69454045       0.37533789       1.93818747       0.00000000
H       -1.86479777       1.04659993      -1.36093027       0.00000000
Si       0.29887263       1.36748035       2.50628046       0.00000000
Si       1.59554035       2.55888209       0.88816281       0.00000000
Si       1.35707104      -2.61797081       1.16521090       0.00000000
Si      -1.18622152      -2.42756026      -1.82046708       0.00000000
Si      -2.02018808       2.48461598      -0.93619391       0.00000000
Si      -2.32150421      -1.56089315       2.05399252       0.00000000
H        2.15433623      -0.37756962      -2.77631543       0.00000000
