10
Lattice="16.2900001489832 0.0 0.0 0.0 16.2900001489832 0.0 0.0 0.0 29.46693228775786" Properties=species:S:1:pos:R:3:initial_magmoms:R:1 pbc="T T T"
Si       1.37000530      -1.36022316      -1.37206877       0.00000000
Si       1.37704258       1.33589404       1.39574545       0.00000000
Si      -1.34724817      -1.36700631       1.39544489       0.00000000
Si      -1.36647037       1.37034739      -1.39098654       0.00000000
Si      -2.71604801      -2.70992249       0.00005893       0.00000000
Si       2.73808773       2.71393031       0.01231718       0.00000000
Si      -2.73082304       2.72298755      -0.00615859       0.00000000
Si       2.73285425      -2.72259871       0.01850523       0.00000000
Si       0.00526167       2.67569768       2.78718578       0.00000000
Si       2.74646649       0.01866834      -2.72893260       0.00000000
