10
Lattice="16.2900001489832 0.0 0.0 0.0 16.2900001489832 0.0 0.0 0.0 29.46693228775786" Properties=species:S:1:pos:R:3:initial_magmoms:R:1 pbc="T T T"
Si       1.35024553      -1.34175193      -1.40448239       0.00000000
Si      -1.34724817      -1.47545210       1.29457074       0.00000000
Si       1.36477621       1.37489230       1.39626112       0.00000000
Si      -1.37489230       1.35944938      -1.41078832       0.00000000
Si      -2.73298961      -0.09720243       2.55663945       0.00000000
Si       2.66437744      -2.69312701       0.05295208       0.00000000
Si      -2.73412991      -2.68059869      -0.16916966       0.00000000
Si       2.68483849       2.73709470      -0.01225824       0.00000000
Si      -0.04958676       2.66685221       2.77015684       0.00000000
Si      -2.76353337       2.72341109      -0.06279403       0.00000000
