10
Lattice="16.2900001489832 0.0 0.0 0.0 16.2900001489832 0.0 0.0 0.0 29.46693228775786" Properties=species:S:1:pos:R:3:initial_magmoms:R:1 pbc="T T T"
Si      -1.95142799      -0.64839739       1.24707004       0.00000000
Si       1.65763034      -1.12096867       1.33402696       0.00000000
Si       0.34837794       2.26356068       0.82041833       0.00000000
Si      -0.33378210      -0.10720449      -2.48995578       0.00000000
H        1.77026690      -0.14229315       2.48129250       0.00000000
H       -3.23074686      -0.81570547       0.47889658       0.00000000
H       -3.25194015       1.41147964       0.17960095       0.00000000
H        1.76804657      -2.19942695      -2.28728222       0.00000000
Si       1.55080915       3.34011792      -1.01410447       0.00000000
Si      -2.76973986       1.33745788       2.29697684       0.00000000
