10
Lattice="16.2900001489832 0.0 0.0 0.0 16.2900001489832 0.0 0.0 0.0 29.46693228775786" Properties=species:S:1:pos:R:3:initial_magmoms:R:1 pbc="T T T"
Si      -1.36335898      -1.37572309       1.35064631       0.00000000
Si       1.37468053       1.36875097       1.37368945       0.00000000
Si      -1.37384974       1.44397819      -1.29969798       0.00000000
Si       1.33965703      -1.44998920      -1.33264201       0.00000000
Si       2.68161095      -0.05572809      -2.63351867       0.00000000
Si      -2.66602142      -2.73214253      -0.12161003       0.00000000
Si      -2.64075563       0.14344974      -2.78052920       0.00000000
Si       2.69024465       2.75009412      -0.03963302       0.00000000
Si      -2.69798240       0.00206883       2.75960768       0.00000000
Si       2.73017145      -2.73478151       0.04920978       0.00000000
