10
Lattice="16.2900001489832 0.0 0.0 0.0 16.2900001489832 0.0 0.0 0.0 29.46693228775786" Properties=species:S:1:pos:R:3:initial_magmoms:R:1 pbc="T T T"
Si      -0.41321214       1.86036689      -1.38918906       0.00000000
Si      -1.12712140       0.34293708       2.05587840       0.00000000
Si       2.38233107      -0.22384089      -0.00804447       0.00000000
Si      -1.10043838      -1.67479121      -1.34045075       0.00000000
Si      -1.91130572       0.41128992      -2.59910130       0.00000000
Si       2.01346031      -2.53892684       0.48263888       0.00000000
H        1.96230971      -1.70724089      -2.08905816       0.00000000
Si      -0.09432073       2.45943164       2.50633939       0.00000000
Si      -0.95705380       3.39731211       0.35596054       0.00000000
Si       0.03680888      -3.68632929      -0.12423259       0.00000000
