10
Lattice="16.2900001489832 0.0 0.0 0.0 16.2900001489832 0.0 0.0 0.0 29.46693228775786" Properties=species:S:1:pos:R:3:initial_magmoms:R:1 pbc="T T T"
Si       1.30653001       1.30621366       1.42033560       0.00000000
Si       1.67797786      -0.98943832      -1.34490026       0.00000000
Si      -0.95683193       1.57705120      -1.49662549       0.00000000
Si      -1.43091980      -1.35528240       1.34009715       0.00000000
Si       2.51850928       2.51545295      -0.21961705       0.00000000
Si       0.48566713      -1.48229064      -3.33108936       0.00000000
Si      -2.74426849       2.53252487      -0.16413081       0.00000000
Si       0.68196652       3.41873346      -1.48619420       0.00000000
Si       2.67618019      -0.11880297       2.70300170       0.00000000
Si      -0.92198762       0.40154850      -3.67370138       0.00000000
