10
Lattice="16.2900001489832 0.0 0.0 0.0 16.2900001489832 0.0 0.0 0.0 29.46693228775786" Properties=species:S:1:pos:R:3:initial_magmoms:R:1 pbc="T T T"
Si      -1.34938070       1.36917451      -1.38677277       0.00000000
Si      -1.36394396      -1.35407368       1.38771571       0.00000000
Si       1.33437239      -1.36115983      -1.41276260       0.00000000
Si       1.36871171       1.35138583       1.39316709       0.00000000
Si       2.69477474       0.07604172      -2.71487687       0.00000000
Si       2.69985722      -2.72201015      -0.02230647       0.00000000
Si      -2.71001925      -2.72135855      -0.00665953       0.00000000
Si      -2.71694250       2.71479857       0.00633539       0.00000000
Si      -2.68015968      -0.03719007      -2.75274188       0.00000000
Si       2.72093648       2.73452462       0.01473347       0.00000000
