10
Lattice="16.2900001489832 0.0 0.0 0.0 16.2900001489832 0.0 0.0 0.0 29.46693228775786" Properties=species:S:1:pos:R:3:initial_magmoms:R:1 pbc="T T T"
Si      -1.39971826       1.39518964      -1.27491629       0.00000000
Si      -1.40014180      -1.33284781       1.36405376       0.00000000
Si       1.33077898       1.40636458       1.36596911       0.00000000
Si       1.35384562      -1.31185000      -1.45428151       0.00000000
Si      -2.74378989      -2.65613339      -0.07873564       0.00000000
Si       2.70623997      -2.71174745      -0.10074744       0.00000000
Si      -0.02985957      -2.68416848       2.74608235       0.00000000
Si       2.68015968       0.03719007       2.75274188       0.00000000
Si       2.73499931       0.12650814      -2.71685116       0.00000000
Si       2.66232148       2.80814842      -0.01717922       0.00000000
