10
Lattice="16.2900001489832 0.0 0.0 0.0 16.2900001489832 0.0 0.0 0.0 29.46693228775786" Properties=species:S:1:pos:R:3:initial_magmoms:R:1 pbc="T T T"
Si      -0.81078589       0.47706894       2.15783398       0.00000000
Si      -1.84635749      -0.90854218      -1.17900143       0.00000000
Si       0.92794341       1.81646534      -1.22113914       0.00000000
Si       1.69445812      -1.75202210      -0.05754892       0.00000000
Si      -0.55718317      -2.25316766      -2.64280076       0.00000000
Si       2.35962607       0.54377649      -2.58053713       0.00000000
Si       0.00008145      -1.60901218       3.41648453       0.00000000
Si       1.88450541      -2.47464650       2.16322643       0.00000000
Si       0.73221922      -3.59849361      -1.19069980       0.00000000
Si       3.65115918      -0.80133769      -1.07395181       0.00000000
