10
Lattice="16.2900001489832 0.0 0.0 0.0 16.2900001489832 0.0 0.0 0.0 29.46693228775786" Properties=species:S:1:pos:R:3:initial_magmoms:R:1 pbc="T T T"
Si       1.31470075      -1.39387015      -1.38367874       0.00000000
Si       1.39681864       1.30642543       1.39779340       0.00000000
Si      -1.34294761      -1.34860024       1.42119014       0.00000000
Si      -1.28067094       1.39229002      -1.45345643       0.00000000
Si      -2.68895774       2.67348224      -0.01676668       0.00000000
Si       2.76107211       2.61786818      -0.03877848       0.00000000
Si      -2.70576902      -2.67677282       0.02628450       0.00000000
Si      -2.66869298      -0.03010392      -2.74440274       0.00000000
Si       2.70185112      -2.71329500       0.06417898       0.00000000
Si       0.02497257       2.64544715       2.80805131       0.00000000
