10
Lattice="16.2900001489832 0.0 0.0 0.0 16.2900001489832 0.0 0.0 0.0 29.46693228775786" Properties=species:S:1:pos:R:3:initial_magmoms:R:1 pbc="T T T"
H        0.11263655       0.97867552       1.14726554       0.00000000
Si      -0.80994760      -2.00573396       0.96719312       0.00000000
Si       2.16081085      -0.42547363      -0.90811192       0.00000000
Si      -1.65763034       1.12096867      -1.33402696       0.00000000
H        1.41082413       0.23069247       2.98632625       0.00000000
Si      -0.26610595      -3.54267919      -0.77795648       0.00000000
Si      -3.60905833       0.47257128      -0.08695692       0.00000000
Si      -1.30925240       3.38452935      -0.51360863       0.00000000
Si       1.75921348      -2.70055134      -1.83906071       0.00000000
Si      -3.18802699      -1.53000080       1.19847907       0.00000000
