10
Lattice="16.2900001489832 0.0 0.0 0.0 16.2900001489832 0.0 0.0 0.0 29.46693228775786" Properties=species:S:1:pos:R:3:initial_magmoms:R:1 pbc="T T T"
Si       1.34949017       1.56289519       1.10309461       0.00000000
Si       1.44129246      -1.43260777      -1.30149547       0.00000000
Si      -1.37772790       1.33426504      -1.47370022       0.00000000
Si      -1.20243121      -1.07655724       1.83452280       0.00000000
Si      -0.02269054      -2.59336802      -2.80351340       0.00000000
Si      -1.55080915      -3.34011792       1.01410447       0.00000000
Si       2.70268907       0.00307881      -2.83159539       0.00000000
Si      -3.13519086       2.34720983      -0.21239765       0.00000000
Si       2.93433288       0.47462544       2.58834587       0.00000000
Si       0.29073627       2.73953819       2.83513142       0.00000000
