10
Lattice="16.2900001489832 0.0 0.0 0.0 16.2900001489832 0.0 0.0 0.0 29.46693228775786" Properties=species:S:1:pos:R:3:initial_magmoms:R:1 pbc="T T T"
Si      -0.95430079      -1.95023882       1.00193463       0.00000000
Si       0.44735598       1.83798443       1.48419045       0.00000000
Si       2.16381701      -1.02413602      -0.47462388       0.00000000
H       -1.43650108      -1.87621706      -1.11544125       0.00000000
Si      -1.77034835       1.04997196      -2.12674637       0.00000000
H       -0.41793624      -1.94479796       2.42704388       0.00000000
Si      -2.82520731       1.77256379      -0.14556665       0.00000000
Si      -1.93419317      -1.25418340      -2.42294797       0.00000000
Si       0.60483142       3.39009564      -0.36583196       0.00000000
Si       0.23105736       2.39963105      -2.52154433       0.00000000
