10
Lattice="16.2900001489832 0.0 0.0 0.0 16.2900001489832 0.0 0.0 0.0 29.46693228775786" Properties=species:S:1:pos:R:3:initial_magmoms:R:1 pbc="T T T"
Si      -1.38429163       1.37403512       1.27641911       0.00000000
Si       1.16242183       1.53158093      -1.33099186       0.00000000
Si       1.39971826      -1.39518964       1.27491629       0.00000000
Si      -1.37354023      -1.22101696      -1.48749074       0.00000000
H        1.56054943      -1.02462472      -2.96673074       0.00000000
Si       2.53952957       0.06082686      -2.53831101       0.00000000
Si      -0.71921980       2.75217924      -2.26338454       0.00000000
Si      -2.51615342       2.58865858      -0.44221025       0.00000000
Si      -0.00042354      -2.72803745       2.63897005       0.00000000
Si       2.73049725       0.01117494       2.64088541       0.00000000
