10
Lattice="16.2900001489832 0.0 0.0 0.0 16.2900001489832 0.0 0.0 0.0 29.46693228775786" Properties=species:S:1:pos:R:3:initial_magmoms:R:1 pbc="T T T"
Si       1.37639098      -1.37153330      -1.34045075       0.00000000
Si       1.36293544       1.34130232       1.41055258       0.00000000
Si      -1.34078104      -1.36914845       1.40940337       0.00000000
Si      -1.33898914       1.31813794      -1.46824884       0.00000000
Si      -2.71036280       2.64655487      -0.03088135       0.00000000
Si      -2.71200809      -2.70330109       0.00577552       0.00000000
Si       2.79156846       0.02985957      -2.63234000       0.00000000
Si      -0.01352070      -2.72697241      -2.71879597       0.00000000
Si       2.71648784       2.73818612       0.04979912       0.00000000
Si       2.73370638      -2.74420854       0.03877848       0.00000000
