10
Lattice="16.2900001489832 0.0 0.0 0.0 16.2900001489832 0.0 0.0 0.0 29.46693228775786" Properties=species:S:1:pos:R:3:initial_magmoms:R:1 pbc="T T T"
Si      -1.34272151      -1.33356457      -1.42589307       0.00000000
Si      -1.33274372       1.35218404       1.42593432       0.00000000
Si       1.32026867      -1.37885077       1.42319390       0.00000000
Si       1.34317241       1.36531378      -1.42370073       0.00000000
Si       2.71764118      -2.68662827       0.00863381       0.00000000
Si      -2.69173030      -2.72241740      -0.06093762       0.00000000
Si      -2.68150018       2.73339686       0.01894724       0.00000000
Si       2.67434236       0.00635310       2.77160072       0.00000000
Si       2.71283563       2.74984977      -0.07867671       0.00000000
Si      -2.79525325      -0.06263505       2.68773783       0.00000000
