10
Lattice="16.2900001489832 0.0 0.0 0.0 16.2900001489832 0.0 0.0 0.0 29.46693228775786" Properties=species:S:1:pos:R:3:initial_magmoms:R:1 pbc="T T T"
Si      -0.65570509      -1.11459439      -1.98789819       0.00000000
Si      -1.53971452       1.50221494       1.01808251       0.00000000
Si       0.21134646      -1.33288039       1.99273076       0.00000000
Si       2.00824751       1.26226324      -0.43198523       0.00000000
H        2.58753620       0.72643627       1.09802630       0.00000000
H        0.36673677      -2.77089645       1.56799440       0.00000000
Si       2.15298416      -0.13032000       2.59656714       0.00000000
H       -2.02645973      -2.65748546       1.04203913       0.00000000
Si       0.26800308       0.40435038      -3.72529798       0.00000000
Si      -3.07814214       0.18179640       2.20492214       0.00000000
