10
Lattice="10.86 0.0 0.0 0.0 10.86 0.0 0.0 0.0 10.86" Properties=species:S:1:pos:R:3:initial_magmoms:R:1 pbc="T T T"
Si      -1.05385440       1.19503440      -1.48419276       0.00000000
Si      -1.05385440      -1.51996560       1.23080724       0.00000000
Si       1.57144200      -1.66265514      -0.57741534       0.00000000
Si       1.66114560       1.19503440       1.23080724       0.00000000
Si      -2.41135440       2.55253440      -0.12669276       0.00000000
Si      -2.41135440      -0.16246560       2.58830724       0.00000000
Si       0.30364560       2.55253440       2.58830724       0.00000000
Si      -2.41135440      -0.16246560      -2.84169276       0.00000000
Si       2.66659698      -0.43545342      -2.59590924       0.00000000
Si      -2.41135440      -2.87746560      -0.12669276       0.00000000
