10
Lattice="10.86 0.0 0.0 0.0 10.86 0.0 0.0 0.0 10.86" Properties=species:S:1:pos:R:3:initial_magmoms:R:1 pbc="T T T"
Si      -1.18609662       1.23155658      -1.51908594       0.00000000
Si       1.52890338       1.23155658       1.19591406       0.00000000
Si       1.52890338      -1.48344342      -1.51908594       0.00000000
Si      -2.60514024      -0.19124460       2.46156018       0.00000000
Si      -2.54359662       2.58905658      -0.16158594       0.00000000
Si       0.17140338       2.58905658       2.55341406       0.00000000
Si       0.06523602      -2.81893020       2.44006824       0.00000000
Si       2.88640338      -0.12594342       2.55341406       0.00000000
Si       0.17140338       2.58905658      -2.87658594       0.00000000
Si       2.88640338       2.58905658      -0.16158594       0.00000000
