10
Lattice="16.28999089631971 0.0 0.0 0.0 16.28999089631971 0.0 0.0 0.0 34.48637585096406" Properties=species:S:1:pos:R:3:initial_magmoms:R:1 pbc="T T T"
Si      -1.29640707       1.33542162      -1.55461221       0.00000000
Si      -1.59360183      -0.87851970       1.61506686       0.00000000
Si       1.27465992       1.50547293       1.42756433       0.00000000
Si       1.41835401      -1.37542660      -1.54837017       0.00000000
Si      -2.64051126      -2.71650590      -0.05310905       0.00000000
Si      -0.19706013      -0.67901607       3.76039652       0.00000000
Si       2.75833683       2.65992894      -0.04297005       0.00000000
Si      -2.70435177       2.71867068      -0.09073371       0.00000000
Si       2.87785656      -2.64313248      -0.04776366       0.00000000
Si      -2.65346181      -0.02073717      -2.93986173       0.00000000
