10
Lattice="16.28999089631971 0.0 0.0 0.0 16.28999089631971 0.0 0.0 0.0 34.48637585096406" Properties=species:S:1:pos:R:3:initial_magmoms:R:1 pbc="T T T"
Si       0.64172826      -2.20068845      -0.48415450       0.00000000
Si       1.99062171       1.43169552      -0.08956117       0.00000000
Si      -1.39654170      -0.19950363      -2.14532967       0.00000000
Si      -1.34449515      -0.03927519       2.21137111       0.00000000
Si       1.47172005       2.18448900      -2.33283220       0.00000000
Si      -2.57272857      -2.02552434       1.67090033       0.00000000
Si      -1.10775258      -3.51400454       0.51498534       0.00000000
Si      -3.49097958       1.08659187      -0.79725648       0.00000000
Si       2.37410460      -2.81293181       0.93113267       0.00000000
Si       0.19706013       0.67901607      -3.76039652       0.00000000
