10
Lattice="16.28999089631971 0.0 0.0 0.0 16.28999089631971 0.0 0.0 0.0 34.48637585096406" Properties=species:S:1:pos:R:3:initial_magmoms:R:1 pbc="T T T"
Si       2.01898260      -1.28265831      -0.31917159       0.00000000
Si      -0.51890166       0.75279348      -2.24327103       0.00000000
Si      -1.99062171      -1.43169552       0.08956117       0.00000000
Si       1.33116993       0.76269780       2.18254049       0.00000000
Si      -1.13121018       2.64919383      -0.94368572       0.00000000
Si       0.60378885      -1.16768349       3.27906991       0.00000000
Si       1.86763221      -2.52114466       1.73311379       0.00000000
Si      -1.34889345      -3.63238397      -0.39459333       0.00000000
Si       4.02468885       0.12772989      -0.11397754       0.00000000
Si       1.04873391       3.92308812      -0.66158700       0.00000000
