10
Lattice="16.28999089631971 0.0 0.0 0.0 16.28999089631971 0.0 0.0 0.0 34.48637585096406" Properties=species:S:1:pos:R:3:initial_magmoms:R:1 pbc="T T T"
Si       0.50241618       2.19921516       0.72048977       0.00000000
Si      -0.01303200       0.97568955      -2.16850453       0.00000000
Si       1.89801306      -1.41861465       0.22095433       0.00000000
Si      -2.18113326      -0.75727323       0.69662518       0.00000000
Si      -1.87256808       1.69987779       1.72818223       0.00000000
Si       1.23795855      -2.15149035       2.43246339       0.00000000
Si       1.79111808      -2.76976589      -1.73966620       0.00000000
Si       2.15563941       2.12255442      -2.23182155       0.00000000
Si      -3.40550595      -0.83468331      -1.36310925       0.00000000
Si       3.84365808      -0.04883742       0.30403206       0.00000000
