10
Lattice="16.28999089631971 0.0 0.0 0.0 16.28999089631971 0.0 0.0 0.0 34.48637585096406" Properties=species:S:1:pos:R:3:initial_magmoms:R:1 pbc="T T T"
Si       0.91326627       1.88320545      -1.05080218       0.00000000
Si       1.30939020      -1.32375798       1.44057949       0.00000000
Si      -1.42205184       1.36603053       1.43981045       0.00000000
Si      -0.79596198      -1.95532128      -1.34873329       0.00000000
Si       2.68786629      -2.67353109      -0.00805257       0.00000000
Si      -2.77229736      -2.62109358      -0.08265354       0.00000000
Si       2.64953592       0.02731833       2.81565208       0.00000000
Si      -0.06555096      -2.68692147       2.80820301       0.00000000
Si      -2.64463263       2.86646985       0.07383192       0.00000000
Si      -0.06507855       2.74352922       2.80834096       0.00000000
