10
Lattice="16.28999089631971 0.0 0.0 0.0 16.28999089631971 0.0 0.0 0.0 34.48637585096406" Properties=species:S:1:pos:R:3:initial_magmoms:R:1 pbc="T T T"
Si       1.35060390       1.36475991      -1.37824878       0.00000000
Si      -1.36588392      -1.35171162      -1.37707624       0.00000000
Si      -1.48830327       1.31738859       1.30537903       0.00000000
Si       1.33043688      -1.38163635       1.52057413       0.00000000
Si       2.68858305      -2.70557352      -0.00827673       0.00000000
Si       2.69679321       2.71922454       0.00506950       0.00000000
Si      -2.72430702      -2.70614367       0.00893198       0.00000000
Si       2.70576900       0.00612504      -2.73921988       0.00000000
Si      -0.00796581      -2.70840798      -2.73966820       0.00000000
Si      -0.00794952       2.72192868      -2.73911642       0.00000000
