10
Lattice="16.28999089631971 0.0 0.0 0.0 16.28999089631971 0.0 0.0 0.0 34.48637585096406" Properties=species:S:1:pos:R:3:initial_magmoms:R:1 pbc="T T T"
Si       0.61230852      -1.89640035      -1.29958531       0.00000000
Si      -1.11728223       1.31077485       1.67834939       0.00000000
Si       2.17994409       1.27389429       0.28209871       0.00000000
Si      -2.03123268       0.84773160      -1.38628411       0.00000000
Si       1.13121018      -2.64919383       0.94368572       0.00000000
Si       0.61102161       3.08353410       0.35821019       0.00000000
Si       2.09598543      -0.74194434      -2.77011969       0.00000000
Si      -0.72275472       1.95708060      -2.98531479       0.00000000
Si       3.73050774       0.35422605      -1.44563520       0.00000000
Si      -3.53533725       0.91088793       1.92247858       0.00000000
