10
Lattice="16.28999089631971 0.0 0.0 0.0 16.28999089631971 0.0 0.0 0.0 34.48637585096406" Properties=species:S:1:pos:R:3:initial_magmoms:R:1 pbc="T T T"
Si      -1.26131841       1.40716278      -1.33527873       0.00000000
Si      -1.30847796      -1.10934900       1.59903068       0.00000000
Si       1.48830327      -1.31738859      -1.30537903       0.00000000
Si       0.75310299       1.91987424       1.19095317       0.00000000
Si       0.72275472      -1.95708060       2.98531479       0.00000000
Si      -2.59470378       0.04986369      -2.68955947       0.00000000
Si      -2.64394845      -2.64028320       0.16743145       0.00000000
Si       1.33377633       1.12645350       3.34352498       0.00000000
Si       0.12241935      -2.66910021      -2.68245527       0.00000000
Si      -2.63368575       2.78021430       0.06448956       0.00000000
