10
Lattice="16.28999089631971 0.0 0.0 0.0 16.28999089631971 0.0 0.0 0.0 34.48637585096406" Properties=species:S:1:pos:R:3:initial_magmoms:R:1 pbc="T T T"
Si       0.01303200      -0.97568955       2.16850453       0.00000000
Si      -0.59588820      -1.62515556      -1.66524456       0.00000000
Si       2.16867141       1.14686487      -0.06331702       0.00000000
Si      -1.75743036       1.99572048      -0.36258996       0.00000000
Si       0.51544818       1.22352561       2.88899429       0.00000000
Si      -0.63917073       2.86171317       1.58333937       0.00000000
Si       1.49020920      -2.66459602      -1.66176144       0.00000000
Si       2.45589669       1.09647990      -2.34869594       0.00000000
Si      -3.55954419       0.43868970       0.17608753       0.00000000
Si       1.57957614       3.40944813       0.51443356       0.00000000
