10
Lattice="16.28999089631971 0.0 0.0 0.0 16.28999089631971 0.0 0.0 0.0 34.48637585096406" Properties=species:S:1:pos:R:3:initial_magmoms:R:1 pbc="T T T"
Si      -0.04258206       0.10689498      -2.33190107       0.00000000
Si      -1.97633538      -0.66577230       1.26607975       0.00000000
Si       0.79596198       1.95532128       1.34873329       0.00000000
Si       1.87745508      -1.86066009       0.02151951       0.00000000
Si      -0.64413918      -2.09131020       2.77768742       0.00000000
Si       2.10535218       0.63156330       2.78931279       0.00000000
Si       0.76206249      -3.42749908       1.37794672       0.00000000
Si       3.48382827      -0.71820981       1.34068072       0.00000000
Si      -0.99002475       2.10370689      -3.32114331       0.00000000
Si      -0.35114724      -2.35025604      -3.36345812       0.00000000
