10
Lattice="16.28999089631971 0.0 0.0 0.0 16.28999089631971 0.0 0.0 0.0 34.48637585096406" Properties=species:S:1:pos:R:3:initial_magmoms:R:1 pbc="T T T"
Si       0.04258206      -0.10689498       2.33190107       0.00000000
Si      -0.94744269       1.99681191      -0.98924224       0.00000000
Si       2.37498426       0.49933737      -1.00769247       0.00000000
Si      -0.30856518      -2.45715102      -1.03155705       0.00000000
Si       1.87256808      -1.69987779      -1.72818223       0.00000000
Si       1.22036535       2.13752493      -2.31334738       0.00000000
Si       1.92003714      -1.96755507       2.35342058       0.00000000
Si      -2.81862612       1.09393866      -2.15057160       0.00000000
Si      -1.70000811      -0.28549854      -3.72059922       0.00000000
Si      -1.93375332      -0.77266728       3.59798082       0.00000000
