10
Lattice="16.28999089631971 0.0 0.0 0.0 16.28999089631971 0.0 0.0 0.0 34.48637585096406" Properties=species:S:1:pos:R:3:initial_magmoms:R:1 pbc="T T T"
Si      -1.35795069      -1.35725022      -1.35738451       0.00000000
Si       1.35708732       1.35811359      -1.35745348       0.00000000
Si       1.35855342      -1.35716877       1.36086764       0.00000000
Si      -1.36003581       1.35848826       1.36148839       0.00000000
Si       0.01259217       2.72624553       2.70114690       0.00000000
Si      -0.00024435       2.71494027      -2.71445865       0.00000000
Si       2.71371852      -2.71580364      -0.00010346       0.00000000
Si      -2.71580364      -2.71389771      -0.00027589       0.00000000
Si      -0.00014661      -2.71503801      -2.71490697       0.00000000
Si       2.71518462       0.00014661      -2.71487248       0.00000000
