10
Lattice="16.28999089631971 0.0 0.0 0.0 16.28999089631971 0.0 0.0 0.0 34.48637585096406" Properties=species:S:1:pos:R:3:initial_magmoms:R:1 pbc="T T T"
Si      -1.23269688       1.36857177      -1.43946213       0.00000000
Si       1.31566185       1.36555812       1.38600822       0.00000000
Si      -1.97253981      -0.84233961       1.09483959       0.00000000
Si       1.45945368      -1.36037790      -1.39642311       0.00000000
Si      -2.39956587       2.93055471      -0.16698313       0.00000000
Si       2.71251306       2.65715964      -0.06521377       0.00000000
Si      -2.60532486       0.00081450      -2.77912064       0.00000000
Si      -2.72564280      -2.76221385      -0.09611358       0.00000000
Si       0.11326437      -2.71484253      -2.77974139       0.00000000
Si       0.11231955       2.71428867      -2.78474192       0.00000000
