10
Lattice="16.28999089631971 0.0 0.0 0.0 16.28999089631971 0.0 0.0 0.0 34.48637585096406" Properties=species:S:1:pos:R:3:initial_magmoms:R:1 pbc="T T T"
Si       1.47347937      -0.19995975      -1.77184201       0.00000000
Si       1.11480615       0.39237723       2.04214637       0.00000000
Si      -2.41750116      -0.03645702      -0.09642396       0.00000000
Si      -1.28427102       2.02079079      -0.35165777       0.00000000
Si      -0.14077818      -2.81665503       0.34089802       0.00000000
Si       2.07796869      -2.26892007      -0.72800780       0.00000000
Si      -1.01243979       1.00514187       2.94510366       0.00000000
Si      -2.44367919      -0.67543227       2.15484791       0.00000000
Si       2.96333019       1.55137815       1.14425859       0.00000000
Si       3.29633037       1.22204322      -1.18371103       0.00000000
