10
Lattice="16.28999089631971 0.0 0.0 0.0 16.28999089631971 0.0 0.0 0.0 34.48637585096406" Properties=species:S:1:pos:R:3:initial_magmoms:R:1 pbc="T T T"
Si      -1.35514881       1.35543170       1.36193672       0.00000000
Si       1.36213722      -1.35821133       1.36014342       0.00000000
Si       1.36528119       1.36208835      -1.35972269       0.00000000
Si      -1.36964691      -1.35718506      -1.38133531       0.00000000
Si       0.15004719      -2.57090409      -2.76111874       0.00000000
Si      -2.71037907       2.71234269       0.00334518       0.00000000
Si       2.71573848       2.71089613       0.00293134       0.00000000
Si      -2.71290402      -0.00201996       2.71835561       0.00000000
Si       0.00216657       2.71257563       2.71870047       0.00000000
Si      -2.71396287      -2.71757925       0.00655242       0.00000000
