10
Lattice="16.28999089631971 0.0 0.0 0.0 16.28999089631971 0.0 0.0 0.0 34.48637585096406" Properties=species:S:1:pos:R:3:initial_magmoms:R:1 pbc="T T T"
Si      -1.16686899       1.56198294       1.27247901       0.00000000
Si       1.34501643       1.34571690      -1.34527979       0.00000000
Si       1.23269688      -1.36857177       1.43946213       0.00000000
Si      -1.37262798      -1.36775727      -1.33965850       0.00000000
Si      -2.29384377      -0.10070478       2.49833241       0.00000000
Si      -0.73984293      -2.21091138       2.53430172       0.00000000
Si       2.54835873      -0.00301365       2.82547035       0.00000000
Si       2.70231552      -0.00949707      -2.70125036       0.00000000
Si      -0.01192428       2.70265761      -2.70200906       0.00000000
Si       2.69086365       2.71924083       0.02545096       0.00000000
