10
Lattice="16.28999089631971 0.0 0.0 0.0 16.28999089631971 0.0 0.0 0.0 34.48637585096406" Properties=species:S:1:pos:R:3:initial_magmoms:R:1 pbc="T T T"
Si       2.30567031      -0.46037169      -0.09852763       0.00000000
Si      -0.21589137       0.45607113       2.30334633       0.00000000
Si      -0.75864159       1.87141149      -1.28727367       0.00000000
Si      -1.69482789      -1.68637338      -0.30137661       0.00000000
Si      -2.73973365       2.40736878      -0.05048808       0.00000000
Si      -1.79102034       0.81249633      -3.13991730       0.00000000
Si      -2.51007723       0.24418710       2.71973507       0.00000000
Si       3.30753789       1.11834108       1.45839516       0.00000000
Si      -3.54727782      -0.98347617       0.97658574       0.00000000
Si      -2.48653818      -1.39991373      -2.52385234       0.00000000
