10
Lattice="16.28999089631971 0.0 0.0 0.0 16.28999089631971 0.0 0.0 0.0 34.48637585096406" Properties=species:S:1:pos:R:3:initial_magmoms:R:1 pbc="T T T"
Si       1.69471386       0.80454681       1.37003554       0.00000000
Si       1.23124707       0.51246711      -1.96310356       0.00000000
Si      -0.89371827      -1.82122200       1.37905718       0.00000000
Si      -1.78494417       1.76379975      -0.12232324       0.00000000
Si       0.32151573       2.11177044       2.78045323       0.00000000
Si       2.89571040       2.30176138       0.00265545       0.00000000
Si      -2.41341237      -0.60750297       2.75884061       0.00000000
Si      -0.50077089       0.61128225      -3.63531437       0.00000000
Si       1.29466404       3.16360175      -1.64593218       0.00000000
Si      -1.01121804       3.48057583       1.35963444       0.00000000
