10
Lattice="16.28999089631971 0.0 0.0 0.0 16.28999089631971 0.0 0.0 0.0 34.48637585096406" Properties=species:S:1:pos:R:3:initial_magmoms:R:1 pbc="T T T"
Si       0.77372613       1.71677608       1.48195769       0.00000000
Si      -0.22727808       0.49010194      -2.41425458       0.00000000
Si       1.78494417      -1.76379975       0.12232324       0.00000000
Si      -1.96211421      -1.03589739       1.26780062       0.00000000
Si       2.10645990       0.34797069       2.90277647       0.00000000
Si       3.07960821       1.39980200      -1.52360894       0.00000000
Si       3.01619124      -1.25133264      -1.84078031       0.00000000
Si      -0.62846820      -2.37130272       2.88116385       0.00000000
Si       1.88911872       3.28361507       0.12553048       0.00000000
Si       3.47965803      -0.95925294       1.49235878       0.00000000
