10
Lattice="16.28999089631971 0.0 0.0 0.0 16.28999089631971 0.0 0.0 0.0 34.48637585096406" Properties=species:S:1:pos:R:3:initial_magmoms:R:1 pbc="T T T"
Si       1.35452979       1.35578412       1.36791666       0.00000000
Si       1.43094618      -1.30681312      -1.34482802       0.00000000
Si      -1.35997065      -1.36242555       1.36874433       0.00000000
Si      -1.32139593       1.36686132      -1.45199449       0.00000000
Si      -0.13623327      -2.52124240      -2.77170748       0.00000000
Si      -2.69987202       2.71663443      -0.00336242       0.00000000
Si      -2.71042794      -2.71123334       0.00609030       0.00000000
Si       2.72878677       2.70355356      -0.01579132       0.00000000
Si       0.00003258       2.71327869       2.72823251       0.00000000
Si      -2.71430496      -0.00379557       2.72726689       0.00000000
