10
Lattice="16.28999089631971 0.0 0.0 0.0 16.28999089631971 0.0 0.0 0.0 34.48637585096406" Properties=species:S:1:pos:R:3:initial_magmoms:R:1 pbc="T T T"
Si       1.58588037      -1.44135779       1.00372653       0.00000000
Si      -1.89499127       0.40371996       1.36121250       0.00000000
Si       1.82718414       1.54175565      -0.26216558       0.00000000
Si      -0.31051998      -1.71074552      -1.76949693       0.00000000
Si       2.85291657      -1.56633467      -1.13160208       0.00000000
Si       2.60154558       0.52770315      -2.28762053       0.00000000
Si      -2.59881130      -2.18229215      -1.65524351       0.00000000
Si      -2.77401500      -1.74168023       2.02728274       0.00000000
Si       3.05155683       1.61916573       1.79756886       0.00000000
Si      -3.70974518       1.28691489       0.10452826       0.00000000
