10
Lattice="16.28999089631971 0.0 0.0 0.0 16.28999089631971 0.0 0.0 0.0 34.48637585096406" Properties=species:S:1:pos:R:3:initial_magmoms:R:1 pbc="T T T"
Si      -0.96309738       0.36926172      -2.06483842       0.00000000
Si       2.13229584       0.85489920       0.25381987       0.00000000
Si      -0.36984816      -2.25946277       0.37179783       0.00000000
Si      -1.37055915       1.29357261       1.42704703       0.00000000
Si      -2.66683590      -2.17266965      -0.32496530       0.00000000
Si      -3.25889595       0.00666261      -1.26413330       0.00000000
Si       0.71127027      -2.44112885       2.43270480       0.00000000
Si       2.14417125       1.08730863       2.61151676       0.00000000
Si       0.30074598      -0.98419945      -3.61079454       0.00000000
Si       0.63478872      -0.43330586       3.68645769       0.00000000
