10
Lattice="16.28999089631971 0.0 0.0 0.0 16.28999089631971 0.0 0.0 0.0 34.48637585096406" Properties=species:S:1:pos:R:3:initial_magmoms:R:1 pbc="T T T"
Si       0.66005451       0.73287570      -2.21150906       0.00000000
Si       1.60104636      -0.86184037       1.64858763       0.00000000
Si      -0.06341697      -2.65113464      -0.31717138       0.00000000
Si      -1.19048949       1.88381307       1.64913941       0.00000000
Si      -1.23795855       2.15149035      -2.43246339       0.00000000
Si      -3.30688629      -0.90970006      -0.89064564       0.00000000
Si      -1.79543493      -2.55231950      -1.98938219       0.00000000
Si      -3.07960821      -1.39980200       1.52360894       0.00000000
Si      -1.29466404      -3.16360175       1.64593218       0.00000000
Si      -2.30588208       0.31697408       3.00556662       0.00000000
