10
Lattice="16.28999089631971 0.0 0.0 0.0 16.28999089631971 0.0 0.0 0.0 34.48637585096406" Properties=species:S:1:pos:R:3:initial_magmoms:R:1 pbc="T T T"
Si      -0.60448932       2.06896032      -1.04383421       0.00000000
Si       1.97957709       0.31073175       1.32651919       0.00000000
Si       0.58909527      -2.26258326      -0.57775058       0.00000000
Si      -2.21874687      -0.54773496       1.06890582       0.00000000
Si      -2.07796869       2.26892007       0.72800780       0.00000000
Si      -1.06412796      -2.18592252       2.37456074       0.00000000
Si       0.82357353      -0.98976411       3.38859870       0.00000000
Si       1.21836168       3.49096329      -0.45570323       0.00000000
Si      -3.33700650      -1.41372765      -0.87702351       0.00000000
Si       0.87632055      -2.31296823      -2.86312950       0.00000000
