10
Lattice="16.28999089631971 0.0 0.0 0.0 16.28999089631971 0.0 0.0 0.0 34.48637585096406" Properties=species:S:1:pos:R:3:initial_magmoms:R:1 pbc="T T T"
Si       1.35451350      -1.36062225      -1.35493598       0.00000000
Si       1.35607734       1.35606105       1.35797078       0.00000000
Si      -1.35925389      -1.35912357       1.35793629       0.00000000
Si      -1.36010097       1.35558864      -1.36224709       0.00000000
Si       2.71305063       2.71536381       0.00010346       0.00000000
Si       2.71340901      -0.00182448       2.71525183       0.00000000
Si       2.71427238      -2.71505430       0.00158637       0.00000000
Si      -0.00201996       2.71402803       2.71538978       0.00000000
Si      -2.71712313      -2.71463076       0.00068973       0.00000000
Si      -2.71726974       2.71448415       0.00155189       0.00000000
