10
Lattice="16.28999089631971 0.0 0.0 0.0 16.28999089631971 0.0 0.0 0.0 34.48637585096406" Properties=species:S:1:pos:R:3:initial_magmoms:R:1 pbc="T T T"
Si       1.35759231       1.35601218       1.35693619       0.00000000
Si       1.35697329      -1.35746199      -1.35738451       0.00000000
Si      -1.35733167       1.35788553      -1.35728105       0.00000000
Si      -1.35879777      -1.35806472       1.35748797       0.00000000
Si       0.00086337      -2.71322982      -2.71366546       0.00000000
Si      -2.71340901       0.00182448      -2.71525183       0.00000000
Si       2.71668330       0.00074934       2.71218254       0.00000000
Si       2.71471221      -2.71503801       0.00006897       0.00000000
Si       2.71484253       2.71500543       0.00024140       0.00000000
Si      -2.71524978      -2.71495656      -0.00006897       0.00000000
