10
Lattice="16.28999089631971 0.0 0.0 0.0 16.28999089631971 0.0 0.0 0.0 34.48637585096406" Properties=species:S:1:pos:R:3:initial_magmoms:R:1 pbc="T T T"
Si      -1.38086665       1.27651698       1.41185232       0.00000000
Si      -1.00490241      -1.73275101      -1.29198479       0.00000000
Si       1.36706820      -1.41270138       1.39368489       0.00000000
Si       0.86975079       1.99656756      -1.12163758       0.00000000
Si      -2.78130151       2.52512919      -0.04696012       0.00000000
Si      -1.00065886       3.47061708      -1.25359391       0.00000000
Si      -0.00548973       2.64073932       2.76720214       0.00000000
Si       2.71781871      -2.72450250      -0.12044718       0.00000000
Si      -2.59425973      -2.85425235      -0.03246894       0.00000000
Si       2.70977145      -0.07569963       2.77706525       0.00000000
