10
Lattice="16.28999089631971 0.0 0.0 0.0 16.28999089631971 0.0 0.0 0.0 34.48637585096406" Properties=species:S:1:pos:R:3:initial_magmoms:R:1 pbc="T T T"
Si       1.85251509      -0.91608444       0.99693271       0.00000000
Si      -0.49554180      -1.17001296      -1.93351423       0.00000000
Si       0.63012978       2.07959769      -0.87381628       0.00000000
Si      -2.12921703       0.22291236       1.00048481       0.00000000
Si      -1.59122349       2.46216834      -1.56671693       0.00000000
Si      -2.13340356       0.39236094      -2.74577229       0.00000000
Si      -1.44072018      -0.20025297       3.21064890       0.00000000
Si      -2.64101625       2.52255537       0.59247627       0.00000000
Si       1.60078572       3.38548554       0.81891394       0.00000000
Si       1.43011539      -1.32519150      -3.30158952       0.00000000
