10
Lattice="16.28999089631971 0.0 0.0 0.0 16.28999089631971 0.0 0.0 0.0 34.48637585096406" Properties=species:S:1:pos:R:3:initial_magmoms:R:1 pbc="T T T"
Si      -1.47347937       0.19995975       1.77184201       0.00000000
Si      -0.68849685       0.42316533      -2.21016409       0.00000000
Si       1.82285100       1.42200297       0.58813098       0.00000000
Si       0.60448932      -2.06896032       1.04383421       0.00000000
Si       1.44072018       0.20025297      -3.21064890       0.00000000
Si       1.48985082       1.75133790       2.91610060       0.00000000
Si      -1.61425755      -2.61669528       2.11274002       0.00000000
Si       3.78421587       0.21903534      -0.09266494       0.00000000
Si      -2.75775039       2.22075054       1.42018424       0.00000000
Si      -0.35867322       0.59233698       3.81398838       0.00000000
