10
Lattice="16.28999089631971 0.0 0.0 0.0 16.28999089631971 0.0 0.0 0.0 34.48637585096406" Properties=species:S:1:pos:R:3:initial_magmoms:R:1 pbc="T T T"
Si       0.38188647       0.25982550      -2.36873254       0.00000000
Si       0.79291575       2.34650934      -0.06835204       0.00000000
Si       1.86396696      -1.55258361       0.64010198       0.00000000
Si      -2.29011336      -1.08478368      -0.65210325       0.00000000
Si      -1.98166221      -0.07723089       2.36185737       0.00000000
Si       2.34646047       1.78284276      -1.92151296       0.00000000
Si      -1.31971806      -3.04917849      -1.49995127       0.00000000
Si       0.65741553      -2.91814173       2.10158854       0.00000000
Si      -1.25793009       1.76088384      -3.01628358       0.00000000
Si      -3.10645413       0.60188292      -2.11839579       0.00000000
