10
Lattice="16.28999089631971 0.0 0.0 0.0 16.28999089631971 0.0 0.0 0.0 34.48637585096406" Properties=species:S:1:pos:R:3:initial_magmoms:R:1 pbc="T T T"
Si      -1.34869797       1.34831721       1.35645338       0.00000000
Si       1.36681245       1.33816439      -1.35404623       0.00000000
Si       1.36541151      -1.36642149       1.35155631       0.00000000
Si      -1.32988302      -1.36146933      -1.39695420       0.00000000
Si       0.62359749      -2.17891782      -2.75867021       0.00000000
Si       2.42227413      -0.30845115      -2.63225688       0.00000000
Si      -2.70762606       2.70477109      -0.00462118       0.00000000
Si      -2.70643689      -0.00726534       2.71159628       0.00000000
Si       0.00773775       2.70623556       2.71197563       0.00000000
Si       2.72635956       2.70773424      -0.00210367       0.00000000
