10
Lattice="16.28999089631971 0.0 0.0 0.0 16.28999089631971 0.0 0.0 0.0 34.48637585096406" Properties=species:S:1:pos:R:3:initial_magmoms:R:1 pbc="T T T"
Si       1.59461181      -1.13204097       1.23250928       0.00000000
Si      -1.31566185      -1.36555812      -1.38600822       0.00000000
Si       1.39685121       1.29160152      -1.45122199       0.00000000
Si      -1.25227746       1.09592604       1.96410366       0.00000000
Si       2.79186165       0.95597865       1.68466040       0.00000000
Si       1.00916550       1.03048911       3.30969383       0.00000000
Si      -2.41759890       2.71019988       0.14756728       0.00000000
Si       2.82263346       2.54150064      -0.09663088       0.00000000
Si      -2.54835873       0.00301365      -2.82547035       0.00000000
Si       0.14379183      -2.72593602      -2.78243133       0.00000000
