10
Lattice="16.28999089631971 0.0 0.0 0.0 16.28999089631971 0.0 0.0 0.0 34.48637585096406" Properties=species:S:1:pos:R:3:initial_magmoms:R:1 pbc="T T T"
Si       1.05546168      -1.64661554      -1.27821065       0.00000000
Si      -1.36681245      -1.33816439       1.35404623       0.00000000
Si      -1.28352168       1.42221914      -1.36414729       0.00000000
Si       1.35954711       1.36956986       1.35194256       0.00000000
Si       2.43362826       0.17365417      -2.55325992       0.00000000
Si      -2.69669547      -2.69963372      -0.04290797       0.00000000
Si      -0.00140094      -2.70458588       2.70560254       0.00000000
Si       2.71380120       0.01211977       2.70812005       0.00000000
Si      -2.71551042       0.01015283       2.71049961       0.00000000
Si       2.71748151       2.71308435       0.00769736       0.00000000
