10
Lattice="16.28999089631971 0.0 0.0 0.0 16.28999089631971 0.0 0.0 0.0 34.48637585096406" Properties=species:S:1:pos:R:3:initial_magmoms:R:1 pbc="T T T"
Si      -1.35643572      -1.35791835      -1.35552225       0.00000000
Si      -1.35666378       1.35806146       1.35645338       0.00000000
Si       1.35861858      -1.35746066       1.35676376       0.00000000
Si       1.35814617       1.35775195      -1.35724657       0.00000000
Si      -0.00773775      -2.70623556      -2.71197563       0.00000000
Si       0.00125433       2.71262383       2.71445865       0.00000000
Si      -2.71417464      -2.71350090      -0.00037935       0.00000000
Si       2.71370223       0.00045938       2.71401032       0.00000000
Si      -2.71425609      -0.00060925       2.71397584       0.00000000
Si      -2.71363707       2.71529539      -0.00086216       0.00000000
