10
Lattice="16.28999089631971 0.0 0.0 0.0 16.28999089631971 0.0 0.0 0.0 34.48637585096406" Properties=species:S:1:pos:R:3:initial_magmoms:R:1 pbc="T T T"
Si       1.33641531       1.33850043       1.37380004       0.00000000
Si      -1.35842310       1.35265644      -1.35507392       0.00000000
Si       1.35402480      -1.35950801      -1.35552225       0.00000000
Si      -1.35547461      -1.35705311       1.38900854       0.00000000
Si       2.51191800      -0.14646339       2.82695327       0.00000000
Si      -0.00118917       2.71246419      -2.71290676       0.00000000
Si       2.71406239      -0.00250866      -2.71301022       0.00000000
Si       2.71508688       2.71303434       0.00693177       0.00000000
Si      -2.71640637       2.71181259       0.00541436       0.00000000
Si      -2.71634121      -0.00190593      -2.71307919       0.00000000
