10
Lattice="16.28999089631971 0.0 0.0 0.0 16.28999089631971 0.0 0.0 0.0 34.48637585096406" Properties=species:S:1:pos:R:3:initial_magmoms:R:1 pbc="T T T"
Si       0.72107685      -1.94747343       1.07076808       0.00000000
Si      -1.49970627       1.30967039       1.23702699       0.00000000
Si       1.88126694       1.42529681      -0.33027621       0.00000000
Si      -1.12681188      -1.03242436      -1.83978021       0.00000000
Si       0.69713055      -0.90780749      -3.36145791       0.00000000
Si       1.31269707       2.73520829      -2.19464521       0.00000000
Si      -1.42890993       3.46004813       0.23281765       0.00000000
Si       0.62850078      -3.67647774      -0.59930457       0.00000000
Si      -3.63200211       0.45477119       0.98320712       0.00000000
Si      -0.53928045      -2.23093572       3.04342437       0.00000000
