10
Lattice="16.28999089631971 0.0 0.0 0.0 16.28999089631971 0.0 0.0 0.0 34.48637585096406" Properties=species:S:1:pos:R:3:initial_magmoms:R:1 pbc="T T T"
Si      -1.35449721       1.35749457       1.36031586       0.00000000
Si       1.35900954      -1.35899325       1.36017791       0.00000000
Si      -1.35452979      -1.35578412      -1.36791666       0.00000000
Si       1.37425698       1.34776944      -1.38370798       0.00000000
Si       0.07641639      -2.66259724      -2.71274467       0.00000000
Si      -2.71425609       2.71192662       0.00379350       0.00000000
Si      -2.71277370      -0.00144981       2.71656232       0.00000000
Si       2.71625976       2.71336014       0.00103459       0.00000000
Si       0.00161271       2.71326240       2.71659680       0.00000000
Si      -2.71450044      -2.71820967       0.00082767       0.00000000
