10
Lattice="16.28999089631971 0.0 0.0 0.0 16.28999089631971 0.0 0.0 0.0 34.48637585096406" Properties=species:S:1:pos:R:3:initial_magmoms:R:1 pbc="T T T"
Si       1.35537687       1.35848826      -1.35652235       0.00000000
Si      -1.35850455      -1.35728280      -1.35624646       0.00000000
Si       1.35708910      -1.35757602       1.35752246       0.00000000
Si      -1.35816246       1.35739683       1.35762592       0.00000000
Si       0.00197109      -2.71353607      -2.71307919       0.00000000
Si       2.71439034      -0.00047241       2.71445865       0.00000000
Si       2.71425187      -2.71466008       0.00027589       0.00000000
Si       2.71408246       2.71526607      -0.00010346       0.00000000
Si      -0.00294849      -2.71457537       2.71501043       0.00000000
Si      -0.00302994       2.71544526       2.71473454       0.00000000
