10
Lattice="16.28999089631971 0.0 0.0 0.0 16.28999089631971 0.0 0.0 0.0 34.48637585096406" Properties=species:S:1:pos:R:3:initial_magmoms:R:1 pbc="T T T"
Si      -0.82249839      -1.90008189       1.01352067       0.00000000
Si      -1.90623951       0.80589888      -1.07163024       0.00000000
Si       2.00881764      -0.60813828      -1.03717833       0.00000000
Si       0.42114537       1.43360145       1.81984707       0.00000000
Si       3.04612153       1.50317604      -1.24857994       0.00000000
Si      -1.39712814      -1.13842665       3.14891825       0.00000000
Si       2.90520651      -2.08023300       0.63955020       0.00000000
Si       0.96936903      -3.39496632       1.15574256       0.00000000
Si      -1.48383981       1.21500594       3.22689199       0.00000000
Si      -1.41434667       2.87893170      -1.99703817       0.00000000
