10
Lattice="16.28999089631971 0.0 0.0 0.0 16.28999089631971 0.0 0.0 0.0 34.48637585096406" Properties=species:S:1:pos:R:3:initial_magmoms:R:1 pbc="T T T"
Si      -1.20655143      -1.36555812       1.46148656       0.00000000
Si       1.41074658       1.28487375       1.52506913       0.00000000
Si      -1.86396696       1.55258361      -0.64010198       0.00000000
Si       1.08453933      -2.19631554      -1.32507076       0.00000000
Si      -2.48007105      -2.72404638      -0.04983284       0.00000000
Si       2.44429821       2.06619102      -2.03624920       0.00000000
Si      -1.48208049       1.81240911      -3.00883452       0.00000000
Si       3.19138923       2.23036164       0.31843534       0.00000000
Si      -2.57430870       0.00847080       2.98292631       0.00000000
Si       0.13022226      -2.68050321       2.96238621       0.00000000
