10
Lattice="16.28999089631971 0.0 0.0 0.0 16.28999089631971 0.0 0.0 0.0 34.48637585096406" Properties=species:S:1:pos:R:3:initial_magmoms:R:1 pbc="T T T"
Si      -2.27204775       0.37468629      -0.34545022       0.00000000
Si       0.66970375      -0.63790011       2.13791509       0.00000000
Si       1.12140264       2.02945707      -0.22988631       0.00000000
Si       1.04262257      -1.52368515      -1.48291499       0.00000000
Si      -1.86075783       2.13926796      -1.93651455       0.00000000
Si       2.78466866      -1.49178933       1.62437818       0.00000000
Si      -1.23844725      -2.93977485      -1.64155241       0.00000000
Si       3.14389574       1.33783254      -1.21271408       0.00000000
Si      -0.36760014      -2.74921443       2.34931670       0.00000000
Si       0.79295063       3.20403123       1.81646740       0.00000000
