10
Lattice="16.28999089631971 0.0 0.0 0.0 16.28999089631971 0.0 0.0 0.0 34.48637585096406" Properties=species:S:1:pos:R:3:initial_magmoms:R:1 pbc="T T T"
Si       0.22045257       2.16310023      -0.81936226       0.00000000
Si      -0.55765557      -1.33784883      -1.85567844       0.00000000
Si       1.84261077      -0.62449344       1.36276439       0.00000000
Si      -1.84953402      -0.00609246       1.49750274       0.00000000
Si      -0.87887808       1.29979539       3.19023295       0.00000000
Si      -1.93429089       2.51683758      -1.73052731       0.00000000
Si       1.27783647      -2.78317908       1.96120680       0.00000000
Si       1.35239580       0.61546878       3.34193861       0.00000000
Si      -1.04954841      -3.41088165      -0.93027051       0.00000000
Si       2.14381287       2.29677597      -2.25841056       0.00000000
