10
Lattice="16.28999089631971 0.0 0.0 0.0 16.28999089631971 0.0 0.0 0.0 34.48637585096406" Properties=species:S:1:pos:R:3:initial_magmoms:R:1 pbc="T T T"
Si      -1.35425409       1.35745009      -1.35617749       0.00000000
Si       1.35802669       1.35632608       1.35717759       0.00000000
Si      -1.35650211      -1.35862464       1.35707413       0.00000000
Si       1.35849422      -1.35922737      -1.36179877       0.00000000
Si       0.00368031       2.70096458      -2.70042268       0.00000000
Si      -2.71380120      -0.01211977      -2.70812005       0.00000000
Si       2.71501139       2.71264451      -0.00031038       0.00000000
Si       0.00086392       2.71341014       2.71442416       0.00000000
Si      -2.71472973       2.71370336       0.00065524       0.00000000
Si      -2.71425732      -0.00150925       2.71466556       0.00000000
