10
Lattice="16.28999089631971 0.0 0.0 0.0 16.28999089631971 0.0 0.0 0.0 34.48637585096406" Properties=species:S:1:pos:R:3:initial_magmoms:R:1 pbc="T T T"
Si       1.27682649      -1.91793573       0.60327051       0.00000000
Si      -2.27035522      -0.37660851       0.61389232       0.00000000
Si       1.12702365       1.60881669       1.34814216       0.00000000
Si       0.15219747      -0.74158596      -2.26499746       0.00000000
Si      -0.97422345      -2.79363726      -1.71438767       0.00000000
Si       3.21031917       1.24436052       0.41973392       0.00000000
Si      -1.84539962      -1.63387071       2.54381996       0.00000000
Si       3.26557485      -0.92317059       1.44335910       0.00000000
Si      -3.06207202      -1.74977406      -1.14998333       0.00000000
Si      -0.80619210       0.97974576      -3.55165037       0.00000000
