10
Lattice="16.28999089631971 0.0 0.0 0.0 16.28999089631971 0.0 0.0 0.0 34.48637585096406" Properties=species:S:1:pos:R:3:initial_magmoms:R:1 pbc="T T T"
Si      -0.10974573       1.63615131       1.64403543       0.00000000
Si      -2.04516063      -1.12387968      -0.07128338       0.00000000
Si       0.06545796       1.19553939      -2.03849082       0.00000000
Si       2.02319261      -1.18923516       0.34196709       0.00000000
Si       2.84297057      -0.65425527      -1.78011874       0.00000000
Si       2.35374929       1.66708602      -2.15274424       0.00000000
Si      -1.86647562      -2.34022140      -2.17457413       0.00000000
Si      -3.63151341       0.60924600       0.49074140       0.00000000
Si      -2.41958628       2.08223667       1.90606306       0.00000000
Si       1.49554810      -3.38294430       1.06931965       0.00000000
