10
Lattice="16.28999089631971 0.0 0.0 0.0 16.28999089631971 0.0 0.0 0.0 34.48637585096406" Properties=species:S:1:pos:R:3:initial_magmoms:R:1 pbc="T T T"
Si      -1.35704497       1.35661491      -1.35714311       0.00000000
Si       1.35754344      -1.35695700      -1.35762592       0.00000000
Si       1.35770634       1.35746199       1.35707413       0.00000000
Si      -1.35737891      -1.35966114       1.35662581       0.00000000
Si      -0.00198738      -2.71210581       2.71238946       0.00000000
Si      -2.71097270      -0.00060273       2.71628643       0.00000000
Si      -2.71568547       0.00154755      -2.71218254       0.00000000
Si      -2.71418747       2.71448415       0.00034486       0.00000000
Si       0.00293220       2.71393029      -2.71480351       0.00000000
Si       2.71490769       0.00114030      -2.71383789       0.00000000
