10
Lattice="16.28999089631971 0.0 0.0 0.0 16.28999089631971 0.0 0.0 0.0 34.48637585096406" Properties=species:S:1:pos:R:3:initial_magmoms:R:1 pbc="T T T"
Si       1.33338537       1.35729909       1.35428074       0.00000000
Si      -1.35539153       1.35244467      -1.35576365       0.00000000
Si      -1.34054645      -1.36254447       1.36776492       0.00000000
Si       1.35925389      -1.35922131      -1.35521187       0.00000000
Si       2.59470378      -0.04986369       2.68955947       0.00000000
Si      -2.70898532       2.71150308       0.00389696       0.00000000
Si       0.00198738       2.71210581      -2.71238946       0.00000000
Si      -2.71256286      -0.00299736      -2.71249292       0.00000000
Si       2.71502172       2.71316466       0.00655242       0.00000000
Si      -2.71142882      -2.71753038       0.00738009       0.00000000
