10
Lattice="16.28999089631971 0.0 0.0 0.0 16.28999089631971 0.0 0.0 0.0 34.48637585096406" Properties=species:S:1:pos:R:3:initial_magmoms:R:1 pbc="T T T"
Si      -1.35849422       1.35922737       1.36179877       0.00000000
Si       1.35974259      -1.35824391       1.36159185       0.00000000
Si      -1.34127592      -1.37138994      -1.37431733       0.00000000
Si       1.38104991       1.34581642      -1.37425871       0.00000000
Si      -0.02000412       2.70069534      -2.66497412       0.00000000
Si       2.71355562      -2.71476108       0.00672485       0.00000000
Si      -2.70440783      -2.72450250       0.00620755       0.00000000
Si      -2.71274831       2.71667745       0.00562128       0.00000000
Si       2.71713942       2.71516086       0.00351761       0.00000000
Si       2.71461447       0.00079821       2.71852804       0.00000000
