10
Lattice="16.28999089631971 0.0 0.0 0.0 16.28999089631971 0.0 0.0 0.0 34.48637585096406" Properties=species:S:1:pos:R:3:initial_magmoms:R:1 pbc="T T T"
Si       1.35381303      -1.35651717      -1.35486701       0.00000000
Si       1.35487188       1.35904212       1.35693619       0.00000000
Si      -1.35997717      -1.35731538       1.35766040       0.00000000
Si      -1.35974259       1.35824391      -1.36159185       0.00000000
Si       0.01036044      -2.68644906      -2.73635406       0.00000000
Si       2.71197549      -2.71278999       0.00096562       0.00000000
Si       2.71259451       0.00169416       2.71452762       0.00000000
Si      -0.00293220      -2.71393029       2.71480351       0.00000000
Si       2.71262709       2.71649378       0.00051730       0.00000000
Si      -2.71861767      -2.71238274       0.00262097       0.00000000
