10
Lattice="16.28999089631971 0.0 0.0 0.0 16.28999089631971 0.0 0.0 0.0 34.48637585096406" Properties=species:S:1:pos:R:3:initial_magmoms:R:1 pbc="T T T"
Si      -1.73250666       1.35127179      -0.84291647       0.00000000
Si       1.03237875       1.05891516       1.85264363       0.00000000
Si       1.28014965      -0.12295692      -2.00145243       0.00000000
Si      -0.69551784      -2.21241006       0.61606496       0.00000000
Si      -2.32864084      -0.27253170       2.39345928       0.00000000
Si      -3.04656069      -0.58140639      -1.35107350       0.00000000
Si       2.51048448       2.41194627       0.51577853       0.00000000
Si      -0.94871331       1.59487245       3.08942922       0.00000000
Si       3.21237171       1.08799281      -1.42070153       0.00000000
Si       1.79102034      -0.81249633       3.13991730       0.00000000
