10
Lattice="16.28999089631971 0.0 0.0 0.0 16.28999089631971 0.0 0.0 0.0 34.63643526849801" Properties=species:S:1:pos:R:3:initial_magmoms:R:1 pbc="T T T"
Si       0.39284964      -2.08122669       0.92777207       0.00000000
Si      -1.50604797       0.97707420       1.50142104       0.00000000
Si      -1.18774463       0.05999607      -2.05944896       0.00000000
Si       2.14239564       1.05930612      -0.08638332       0.00000000
Si      -0.45098865       3.00664597       1.96094288       0.00000000
Si       1.91137086       2.50909983       1.88896833       0.00000000
Si       2.01308562       2.96776989      -1.49948139       0.00000000
Si      -1.36333453      -0.04052952       3.66141962       0.00000000
Si       1.59637113      -3.54740814      -0.44926945       0.00000000
Si      -1.49959387      -3.22727706       1.64824497       0.00000000
