10
Lattice="16.28999089631971 0.0 0.0 0.0 16.28999089631971 0.0 0.0 0.0 34.63643526849801" Properties=species:S:1:pos:R:3:initial_magmoms:R:1 pbc="T T T"
Si      -1.70869950       0.25480818      -1.59913047       0.00000000
Si       1.17752917       2.00523614      -0.47036305       0.00000000
Si       1.01733819      -2.09738637      -0.55702346       0.00000000
Si      -0.76241340       0.12421125       2.45298835       0.00000000
Si      -2.69544996       2.38382877      -1.12707023       0.00000000
Si       1.97749034       1.78849769      -2.74286084       0.00000000
Si      -3.27284901      -1.55245329      -1.41417181       0.00000000
Si       2.41248221      -2.95919253       1.06323525       0.00000000
Si       2.98463588       2.50947028       1.04484329       0.00000000
Si       2.78526257      -2.01635991      -2.18067655       0.00000000
