10
Lattice="16.28999089631971 0.0 0.0 0.0 16.28999089631971 0.0 0.0 0.0 34.63643526849801" Properties=species:S:1:pos:R:3:initial_magmoms:R:1 pbc="T T T"
Si       1.38681657       1.29256263       1.35707850       0.00000000
Si       1.37362167      -1.35607734      -1.42113373       0.00000000
Si      -1.32166797      -1.46481309       1.41809061       0.00000000
Si      -1.33954462       1.56939489      -1.28345383       0.00000000
Si      -0.50945346      -2.66937714      -2.25479856       0.00000000
Si       0.48860226       2.95601665      -1.95734069       0.00000000
Si       2.43141282       2.85709074      -0.09528489       0.00000000
Si       0.06175539       2.54595628       2.82018469       0.00000000
Si      -2.65209907      -0.17298351       2.83381067       0.00000000
Si       2.77685856      -0.15034041       2.79420388       0.00000000
