10
Lattice="16.28999089631971 0.0 0.0 0.0 16.28999089631971 0.0 0.0 0.0 34.63643526849801" Properties=species:S:1:pos:R:3:initial_magmoms:R:1 pbc="T T T"
Si       1.36283769       1.33628336      -1.38012417       0.00000000
Si       1.54614906      -1.20343515       1.32983204       0.00000000
Si      -1.35237951      -1.38016282      -1.37655662       0.00000000
Si      -1.43695719       1.37827898       1.47752188       0.00000000
Si       2.71829601       2.69109008       0.00374074       0.00000000
Si      -2.71611315       2.70713573      -0.00041564       0.00000000
Si       0.00755856       2.69649836      -2.73752683       0.00000000
Si      -2.71386513      -2.73079926       0.00471056       0.00000000
Si      -2.70798444      -0.01955289      -2.73756146       0.00000000
Si       2.72225448      -2.72842092      -0.03855037       0.00000000
