10
Lattice="16.28999089631971 0.0 0.0 0.0 16.28999089631971 0.0 0.0 0.0 34.63643526849801" Properties=species:S:1:pos:R:3:initial_magmoms:R:1 pbc="T T T"
Si       0.87956226      -2.14309352      -0.11998068       0.00000000
Si      -1.39916439       0.84661574      -1.74089748       0.00000000
Si      -1.09131597      -0.26786136       2.14621327       0.00000000
Si       2.38839093       0.28280580      -0.82105716       0.00000000
Si       0.64132101       0.98072805       3.16033403       0.00000000
Si      -2.66533722       2.26174595      -0.07710075       0.00000000
Si       1.65635091       3.24572711       0.63845377       0.00000000
Si       2.07335862      -2.31558833      -2.13145814       0.00000000
Si       0.10026495       2.13878903      -3.11998256       0.00000000
Si      -3.20634441       0.72648839       1.89748889       0.00000000
