10
Lattice="16.28999089631971 0.0 0.0 0.0 16.28999089631971 0.0 0.0 0.0 34.63643526849801" Properties=species:S:1:pos:R:3:initial_magmoms:R:1 pbc="T T T"
Si      -1.74791700      -0.40138560       1.46359803       0.00000000
Si       2.12810931       0.12873987       0.90279919       0.00000000
Si      -0.33601383      -1.15904979      -2.01480257       0.00000000
Si      -0.16935084       2.34331650      -0.18537431       0.00000000
Si      -3.29261625       0.12191436      -0.27165371       0.00000000
Si       3.11666796       0.83225610      -1.09177569       0.00000000
Si       1.66140081       2.59680519      -1.65014997       0.00000000
Si      -0.03012021       2.78456373       2.15712376       0.00000000
Si      -2.66414805      -0.93245589      -2.27495698       0.00000000
Si      -1.75547556       1.36379880       3.03827516       0.00000000
