10
Lattice="16.28999089631971 0.0 0.0 0.0 16.28999089631971 0.0 0.0 0.0 34.63643526849801" Properties=species:S:1:pos:R:3:initial_magmoms:R:1 pbc="T T T"
Si      -1.04459625      -1.56452811       1.45236339       0.00000000
Si       1.64307456       0.97933851       1.57414516       0.00000000
Si      -1.85360652       1.69997879      -0.16480025       0.00000000
Si      -1.94281056       0.09892591      -1.86205580       0.00000000
Si       1.89465732      -1.25044062      -2.79699762       0.00000000
Si       2.11841676       2.55176660      -1.43221740       0.00000000
Si      -2.43141282      -2.85709074       0.09528489       0.00000000
Si      -2.36965743      -0.31113446       2.91546958       0.00000000
Si      -0.55081377       3.61361396      -0.93695073       0.00000000
Si       0.35750034       2.42470460       2.90496087       0.00000000
