10
Lattice="16.28999089631971 0.0 0.0 0.0 16.28999089631971 0.0 0.0 0.0 34.63643526849801" Properties=species:S:1:pos:R:3:initial_magmoms:R:1 pbc="T T T"
Si      -1.35711990      -1.35565380      -1.35716020       0.00000000
Si       1.35759231      -1.35664749       1.35795684       0.00000000
Si      -1.35734796       1.35788553       1.35771438       0.00000000
Si       1.35793440       1.35607734      -1.36100485       0.00000000
Si       0.00097740      -2.71365662       2.71560195       0.00000000
Si      -2.71460632      -2.71466497      -0.00017318       0.00000000
Si       2.72075580      -0.00703728      -2.70857075       0.00000000
Si      -2.71609686       0.00052128       2.71373158       0.00000000
Si       2.71575477      -2.71420396       0.00041564       0.00000000
Si       0.00035838       2.71515204       2.71535950       0.00000000
