10
Lattice="16.28999089631971 0.0 0.0 0.0 16.28999089631971 0.0 0.0 0.0 34.63643526849801" Properties=species:S:1:pos:R:3:initial_magmoms:R:1 pbc="T T T"
Si      -1.99394487      -0.05916528       1.29083139       0.00000000
Si       1.81685628       1.20997233       0.99392770       0.00000000
Si      -1.03599513      -0.86152923      -2.80537964       0.00000000
Si       1.84164966      -2.01525219      -1.88211031       0.00000000
Si       3.52018755       0.20160504      -0.28571611       0.00000000
Si       2.69364924       0.63946395      -2.39358683       0.00000000
Si      -1.92761199      -2.32122726       2.28534791       0.00000000
Si      -3.72068650       1.13590170       0.04430003       0.00000000
Si       3.35464857      -2.06075016       0.16421143       0.00000000
Si      -2.07586728       1.40879178       3.18759292       0.00000000
