10
Lattice="16.28999089631971 0.0 0.0 0.0 16.28999089631971 0.0 0.0 0.0 34.63643526849801" Properties=species:S:1:pos:R:3:initial_magmoms:R:1 pbc="T T T"
Si      -1.30145697       1.22572476      -1.51628007       0.00000000
Si      -1.40747229      -1.35264015       1.34365198       0.00000000
Si       0.95764023       1.86852816       1.26336468       0.00000000
Si       1.41791418      -1.47492918      -1.48718545       0.00000000
Si       0.36631323      -2.31883263       2.68186605       0.00000000
Si      -2.64016917       2.59672374      -0.09026260       0.00000000
Si       2.70467757       2.59970481      -0.14949094       0.00000000
Si      -0.75785967       3.59919405       0.96514481       0.00000000
Si      -2.65864203      -2.80565928      -0.11281093       0.00000000
Si       0.06546951       2.58611895      -2.87984802       0.00000000
