10
Lattice="16.28999089631971 0.0 0.0 0.0 16.28999089631971 0.0 0.0 0.0 34.63643526849801" Properties=species:S:1:pos:R:3:initial_magmoms:R:1 pbc="T T T"
Si       0.30281481       0.91030149       2.18147319       0.00000000
Si       1.95624981      -0.14025690      -1.35376583       0.00000000
Si      -0.59147361      -2.32430607       0.34054562       0.00000000
Si      -1.68006915       1.53541395      -0.95437287       0.00000000
Si      -1.14741873      -0.52636248       3.34411506       0.00000000
Si       1.11185766      -3.33267336      -0.93909819       0.00000000
Si      -0.24641883      -2.60094285       2.65575016       0.00000000
Si      -0.33098022       3.17682693       2.02626723       0.00000000
Si       0.97450038      -0.73888182      -3.58868306       0.00000000
Si      -3.73106160       0.71169381       0.02247906       0.00000000
