10
Lattice="16.28999089631971 0.0 0.0 0.0 16.28999089631971 0.0 0.0 0.0 34.63643526849801" Properties=species:S:1:pos:R:3:initial_magmoms:R:1 pbc="T T T"
Si      -1.35747828       1.30693041       1.51607226       0.00000000
Si      -1.38868992      -1.42402293      -1.41259035       0.00000000
Si       1.34472321      -1.42508178       1.51628700       0.00000000
Si       1.92814956       0.74272626      -1.39007665       0.00000000
Si       2.69583210       2.67573024      -0.07178405       0.00000000
Si      -2.76071517       0.10119348      -2.69926536       0.00000000
Si      -2.74752027       2.74983345       0.07894687       0.00000000
Si      -2.74025493      -2.78001882       0.09871043       0.00000000
Si       2.77948125      -2.74053186       0.16738759       0.00000000
Si       0.01192428       2.64042981       2.90215736       0.00000000
