10
Lattice="16.28999089631971 0.0 0.0 0.0 16.28999089631971 0.0 0.0 0.0 34.63643526849801" Properties=species:S:1:pos:R:3:initial_magmoms:R:1 pbc="T T T"
Si       1.88230950       1.00247031       1.05540741       0.00000000
Si      -1.36769211       1.34776944      -1.40592833       0.00000000
Si       1.33871220      -1.37099898      -1.42601747       0.00000000
Si      -1.45653777      -1.24874253       1.53442958       0.00000000
Si       0.68851314       1.17496512       3.06688487       0.00000000
Si       2.64016917      -2.59672374       0.09026260       0.00000000
Si      -2.68472232      -2.71407690      -0.01312722       0.00000000
Si      -0.00620649       2.69840587      -2.78719550       0.00000000
Si      -2.82180267       2.66954004       0.05538369       0.00000000
Si       2.70563868      -0.01060479      -2.78958542       0.00000000
