10
Lattice="16.28999089631971 0.0 0.0 0.0 16.28999089631971 0.0 0.0 0.0 34.63643526849801" Properties=species:S:1:pos:R:3:initial_magmoms:R:1 pbc="T T T"
Si       1.65343500      -0.13554909      -1.66189173       0.00000000
Si       1.03700511      -0.90093474       1.90649437       0.00000000
Si      -1.74812877      -1.54108287      -0.31380628       0.00000000
Si      -0.73301742       2.20543794       0.52169428       0.00000000
Si       3.26505357       1.02265362      -0.39779968       0.00000000
Si      -2.76444558       1.55867607       1.60574604       0.00000000
Si       3.30397038      -0.60098697       1.39733849       0.00000000
Si       2.28723003      -2.40207453      -1.50668578       0.00000000
Si      -2.52346761      -2.04226101       1.88425777       0.00000000
Si       0.07806168       0.14206509       3.80301344       0.00000000
