10
Lattice="16.28999089631971 0.0 0.0 0.0 16.28999089631971 0.0 0.0 0.0 34.63643526849801" Properties=species:S:1:pos:R:3:initial_magmoms:R:1 pbc="T T T"
Si       1.35650088       1.35638685       1.35736802       0.00000000
Si       1.35690813      -1.35730235      -1.35695238       0.00000000
Si      -1.35819504       1.35672894      -1.35677920       0.00000000
Si      -1.35752715      -1.35913334       1.35722947       0.00000000
Si       0.00079821       2.71295289      -2.71466677       0.00000000
Si      -0.00109143      -2.71476827       2.71421649       0.00000000
Si      -2.71730232       0.00244350      -2.71175731       0.00000000
Si       2.71410948       0.00141723      -2.71501313       0.00000000
Si       2.71466334      -2.71453897      -0.00020782       0.00000000
Si       2.71453302       2.71516833       0.00034636       0.00000000
