10
Lattice="16.28999089631971 0.0 0.0 0.0 16.28999089631971 0.0 0.0 0.0 34.63643526849801" Properties=species:S:1:pos:R:3:initial_magmoms:R:1 pbc="T T T"
Si       2.18719314      -0.87039003       0.39256958       0.00000000
Si      -1.09033857      -0.74531541      -2.00358035       0.00000000
Si      -0.68786154      -0.63327279       2.23581778       0.00000000
Si      -0.26663472       2.37357518      -0.44282707       0.00000000
Si      -0.07858296      -2.92674189      -2.16051813       0.00000000
Si       3.41011602      -0.24872468      -1.49494402       0.00000000
Si       0.21313836       0.28838187      -3.83158852       0.00000000
Si       2.95127559      -0.08551761       2.47325068       0.00000000
Si      -2.43633240       2.64830603      -1.46889740       0.00000000
Si      -0.18355572       1.22339203       3.71534858       0.00000000
