10
Lattice="16.28999089631971 0.0 0.0 0.0 16.28999089631971 0.0 0.0 0.0 34.63643526849801" Properties=species:S:1:pos:R:3:initial_magmoms:R:1 pbc="T T T"
Si       1.35128808      -1.35185823       1.33089191       0.00000000
Si       0.99851184       1.75672989      -1.16610102       0.00000000
Si      -1.38481290       1.33628499       1.32453266       0.00000000
Si      -1.06137495      -1.76612922      -1.14706794       0.00000000
Si       2.64034836      -2.67100777      -0.11599402       0.00000000
Si      -1.45878579       0.92708019      -3.38366092       0.00000000
Si       2.69995347      -0.01185912       2.68286011       0.00000000
Si      -0.02013444       2.70980892       2.67330045       0.00000000
Si      -0.01767465      -2.72583665       2.67160326       0.00000000
Si      -2.72622924      -0.01751175       2.68320648       0.00000000
