10
Lattice="16.28999089631971 0.0 0.0 0.0 16.28999089631971 0.0 0.0 0.0 34.63643526849801" Properties=species:S:1:pos:R:3:initial_magmoms:R:1 pbc="T T T"
Si       1.79894217       1.17766926      -0.76404555       0.00000000
Si      -1.74275537       0.14097366      -1.57550841       0.00000000
Si      -1.35721994       1.15481439       1.56757666       0.00000000
Si       1.19900590      -2.07681699       0.25495894       0.00000000
Si      -2.67397322      -1.69822435      -0.40174824       0.00000000
Si      -2.69816387      -0.76530420       1.84383703       0.00000000
Si       3.34364142       0.65436930       0.97120619       0.00000000
Si       1.99896708      -2.29355544      -2.01753885       0.00000000
Si       2.42741037       0.12329901      -2.76734882       0.00000000
Si      -2.28174260       2.45856825      -1.59119873       0.00000000
