10
Lattice="16.28999089631971 0.0 0.0 0.0 16.28999089631971 0.0 0.0 0.0 34.63643526849801" Properties=species:S:1:pos:R:3:initial_magmoms:R:1 pbc="T T T"
Si      -2.09199438      -0.85656078      -0.59553920       0.00000000
Si       0.42813378       1.76090013       1.48341150       0.00000000
Si       1.38815235      -1.94989671       0.37583571       0.00000000
Si       0.77947650       0.43505703      -2.27994463       0.00000000
Si       1.21997439      -2.08274166      -1.89741962       0.00000000
Si      -0.95697234       2.12292909      -2.37484851       0.00000000
Si       1.75128903       0.36805626       2.85995427       0.00000000
Si      -1.06914528      -2.77954641      -1.84172420       0.00000000
Si      -2.77335621      -1.52016651       1.56904321       0.00000000
Si       3.14234100      -1.00587492       1.50866494       0.00000000
