10
Lattice="16.28999089631971 0.0 0.0 0.0 16.28999089631971 0.0 0.0 0.0 34.63643526849801" Properties=species:S:1:pos:R:3:initial_magmoms:R:1 pbc="T T T"
Si       1.73807784       0.91960308       1.26712464       0.00000000
Si      -0.95887827      -1.75716972       1.32750637       0.00000000
Si      -1.81020996       1.72608840      -0.22995787       0.00000000
Si      -1.33045317       0.78384222      -2.56424709       0.00000000
Si       1.35941679      -1.71209529      -2.47886823       0.00000000
Si       0.34541316       2.28449331       2.67372146       0.00000000
Si      -2.39363631      -0.44171964       2.67640578       0.00000000
Si      -2.34398439      -1.39514076      -2.53075364       0.00000000
Si       2.92845330       2.30146749      -0.28011146       0.00000000
Si      -1.38701205      -3.51806985      -0.15590513       0.00000000
