10
Lattice="16.28999089631971 0.0 0.0 0.0 16.28999089631971 0.0 0.0 0.0 34.63643526849801" Properties=species:S:1:pos:R:3:initial_magmoms:R:1 pbc="T T T"
Si      -1.35677781       1.35741312      -1.35785293       0.00000000
Si       1.35767376      -1.35700587      -1.35767975       0.00000000
Si      -1.35834165      -1.35782037       1.35684847       0.00000000
Si       1.35819504       1.35907470       1.35802611       0.00000000
Si      -2.71414206       0.00247608       2.71366231       0.00000000
Si      -0.00083079       2.71472850      -2.71452822       0.00000000
Si      -2.71490769       2.71469592      -0.00013855       0.00000000
Si      -2.71495656      -2.71503801       0.00020782       0.00000000
Si       2.71562445      -0.00024435      -2.71449359       0.00000000
Si       2.71492398       2.71549413      -0.00041564       0.00000000
