10
Lattice="16.28999089631971 0.0 0.0 0.0 16.28999089631971 0.0 0.0 0.0 34.63643526849801" Properties=species:S:1:pos:R:3:initial_magmoms:R:1 pbc="T T T"
Si       1.98286767       0.49837626      -1.20690726       0.00000000
Si      -1.86776253      -0.00589698      -1.48043134       0.00000000
Si       0.21323610      -2.09864070       1.14712474       0.00000000
Si      -0.85102218       1.79519058       1.42359292       0.00000000
Si      -0.88993899       3.41883117      -0.37154525       0.00000000
Si      -3.31799607      -1.44256095      -0.31778947       0.00000000
Si       2.77417071       2.38073463       0.30587453       0.00000000
Si       2.99563326      -1.60643835      -1.51586444       0.00000000
Si      -2.50155756       2.26062846      -1.63563730       0.00000000
Si      -1.56408435      -2.04297777       2.76752200       0.00000000
