10
Lattice="16.28999089631971 0.0 0.0 0.0 16.28999089631971 0.0 0.0 0.0 34.63643526849801" Properties=species:S:1:pos:R:3:initial_magmoms:R:1 pbc="T T T"
Si      -1.88102259      -1.46303748       0.16809071       0.00000000
Si      -0.55449531       1.94352732      -1.32910467       0.00000000
Si       0.68243697       0.86757282       2.16020640       0.00000000
Si       1.94774643      -1.18069920      -0.87935031       0.00000000
Si       2.35794492       2.47081833       1.48999101       0.00000000
Si      -1.18068291      -3.27771090       1.50433050       0.00000000
Si      -2.38881447      -2.17469871      -2.06762316       0.00000000
Si      -1.05531507       3.76056279       0.16611644       0.00000000
Si       3.63182292       0.47710152      -1.39068829       0.00000000
Si       2.54800035      -2.96649045       0.55071963       0.00000000
