10
Lattice="16.28999089631971 0.0 0.0 0.0 16.28999089631971 0.0 0.0 0.0 34.63643526849801" Properties=species:S:1:pos:R:3:initial_magmoms:R:1 pbc="T T T"
Si       1.35721764      -1.35685926       1.36412213       0.00000000
Si      -1.35923760       1.35811359       1.36408749       0.00000000
Si      -1.37999106      -1.35127179      -1.38039780       0.00000000
Si       1.35905841       1.37494116      -1.38308212       0.00000000
Si       0.05476698      -2.66672187      -2.72929721       0.00000000
Si       2.71169856      -2.71368594       0.01028703       0.00000000
Si      -2.71194291      -2.71479366       0.00457201       0.00000000
Si      -2.71278999       2.71423980       0.00547256       0.00000000
Si       2.71062342       2.71829601       0.00907475       0.00000000
Si      -0.00073305      -2.71362078       2.72093597       0.00000000
