10
Lattice="16.28999089631971 0.0 0.0 0.0 16.28999089631971 0.0 0.0 0.0 34.63643526849801" Properties=species:S:1:pos:R:3:initial_magmoms:R:1 pbc="T T T"
Si       0.08920404       1.60105288       1.69725555       0.00000000
Si      -1.82814688      -1.38662176       0.67388686       0.00000000
Si       0.27021852       0.47988222      -2.42940093       0.00000000
Si       1.94281056      -0.09892591       1.86205580       0.00000000
Si       1.96556769      -1.21489258      -2.48045506       0.00000000
Si      -0.48860226      -2.95601665       1.95734069       0.00000000
Si       0.89821431      -1.66345402       3.31441919       0.00000000
Si       1.39199679       3.51468805       0.92510507       0.00000000
Si      -1.71364447       0.99184271       3.36340899       0.00000000
Si      -3.45544199      -0.18061700       2.17398171       0.00000000
