10
Lattice="16.28999089631971 0.0 0.0 0.0 16.28999089631971 0.0 0.0 0.0 34.63643526849801" Properties=species:S:1:pos:R:3:initial_magmoms:R:1 pbc="T T T"
Si      -1.35689184       1.35697349       1.35705629       0.00000000
Si       1.35957969       1.35480998      -1.35681384       0.00000000
Si       1.35754344      -1.35718506       1.35716020       0.00000000
Si      -1.35821133      -1.35795069      -1.35695238       0.00000000
Si       2.71164969       0.00223173      -2.71196512       0.00000000
Si       0.00063531       2.71286885       2.71425113       0.00000000
Si      -2.71176372      -0.00182448      -2.71556732       0.00000000
Si      -2.71433754      -0.00177561       2.71390477       0.00000000
Si       2.71477737       0.00206883       2.71387013       0.00000000
Si      -2.71393029       2.71499958       0.00038100       0.00000000
