10
Lattice="16.28999089631971 0.0 0.0 0.0 16.28999089631971 0.0 0.0 0.0 34.63643526849801" Properties=species:S:1:pos:R:3:initial_magmoms:R:1 pbc="T T T"
Si       1.74703734       0.73117665      -1.41285562       0.00000000
Si      -0.95764023      -1.86852816      -1.26336468       0.00000000
Si      -1.71549990       1.73066589      -0.29821987       0.00000000
Si       0.67593726       0.40630518       2.33383895       0.00000000
Si       0.47061810       2.07834336      -2.80281654       0.00000000
Si      -2.25909720      -0.64280340      -2.77964476       0.00000000
Si       2.62617606       2.52503145      -0.17851629       0.00000000
Si       2.90815596       1.48440996       1.94746930       0.00000000
Si      -2.90929626       1.90316070       1.71325759       0.00000000
Si      -3.59780940       0.72819558      -1.35362728       0.00000000
