10
Lattice="16.28999089631971 0.0 0.0 0.0 16.28999089631971 0.0 0.0 0.0 34.63643526849801" Properties=species:S:1:pos:R:3:initial_magmoms:R:1 pbc="T T T"
Si      -1.27641924       1.34716671      -1.38996092       0.00000000
Si       0.87913872       1.79385480       1.23433933       0.00000000
Si      -1.74703734      -0.73117665       1.41285562       0.00000000
Si       1.43897715      -1.37331216      -1.35182619       0.00000000
Si       1.16111862       0.75323331       3.36032492       0.00000000
Si      -2.70467757      -2.59970481       0.14949094       0.00000000
Si      -3.46253724       0.99948924       1.11463575       0.00000000
Si      -2.45252466       2.87215247      -0.02157851       0.00000000
Si      -2.63920806      -0.01358586      -2.73035708       0.00000000
Si       2.73452085       2.68943013       0.03051472       0.00000000
