10
Lattice="16.28999089631971 0.0 0.0 0.0 16.28999089631971 0.0 0.0 0.0 34.63643526849801" Properties=species:S:1:pos:R:3:initial_magmoms:R:1 pbc="T T T"
Si       1.16514225       1.99909332      -0.28259883       0.00000000
Si      -1.22292288      -0.62166535       1.88751359       0.00000000
Si       1.53653796      -1.74932431      -0.22416713       0.00000000
Si      -1.06647372      -0.44817685      -2.06724216       0.00000000
Si       1.39616703       1.81504890      -2.61564114       0.00000000
Si      -1.38054492      -2.71294297      -1.73293110       0.00000000
Si       0.84711258      -0.28297996      -3.44532278       0.00000000
Si      -0.57956562      -2.93707708       2.13994408       0.00000000
Si       0.17541072      -3.71611375       0.01184567       0.00000000
Si      -3.41011602       0.24872468       1.49494402       0.00000000
