10
Lattice="16.28999089631971 0.0 0.0 0.0 16.28999089631971 0.0 0.0 0.0 34.63643526849801" Properties=species:S:1:pos:R:3:initial_magmoms:R:1 pbc="T T T"
Si       1.76843167      -0.16485480      -1.51104997       0.00000000
Si       1.19993836       0.96474267       1.76808710       0.00000000
Si      -0.73195857      -2.10909888       0.71770198       0.00000000
Si      -1.75156596       1.47755187      -0.56786467       0.00000000
Si       0.62230636      -0.74552814      -3.39229437       0.00000000
Si      -0.67730562       3.50018343      -0.23850663       0.00000000
Si       1.07042146       3.26534679       1.21802556       0.00000000
Si       3.49517330      -1.35992178      -0.26451860       0.00000000
Si       3.41325089       0.10803528       1.63224292       0.00000000
Si      -3.22633224       1.54328202       1.24407218       0.00000000
