10
Lattice="16.28999089631971 0.0 0.0 0.0 16.28999089631971 0.0 0.0 0.0 34.63643526849801" Properties=species:S:1:pos:R:3:initial_magmoms:R:1 pbc="T T T"
Si       1.41954379      -1.24217766       1.36901280       0.00000000
Si       1.65781442       1.16097201      -1.16326394       0.00000000
Si      -1.30683267       1.47748671       1.35040956       0.00000000
Si      -0.72194022      -1.95533757      -1.27350243       0.00000000
Si      -2.60599275      -2.58639588       0.01147506       0.00000000
Si       0.05766660      -2.58049890       2.72227293       0.00000000
Si       2.71191263      -2.63704149      -0.08462725       0.00000000
Si      -2.66326839       0.13341510       2.72580585       0.00000000
Si       3.53493719      -0.74994273      -1.31198491       0.00000000
Si      -2.62324386       2.85715197      -0.07416011       0.00000000
