10
Lattice="16.28999089631971 0.0 0.0 0.0 16.28999089631971 0.0 0.0 0.0 34.63643526849801" Properties=species:S:1:pos:R:3:initial_magmoms:R:1 pbc="T T T"
Si       1.35621418       1.35241209      -1.35147982       0.00000000
Si      -1.28317959       1.37041254       1.40838752       0.00000000
Si      -1.35720135      -1.36062225      -1.35161837       0.00000000
Si       1.28738241      -1.34069958       1.44489434       0.00000000
Si      -0.67145751      -2.14482285       2.62485444       0.00000000
Si      -2.36444463      -0.31964238       2.68041131       0.00000000
Si       2.35874380       0.45336699       2.69575526       0.00000000
Si       0.40296573       2.31762717       2.77562693       0.00000000
Si       0.00029322       2.70876636      -2.71099530       0.00000000
Si       2.70593746      -2.71669959       0.02694716       0.00000000
