10
Lattice="16.28999089631971 0.0 0.0 0.0 16.28999089631971 0.0 0.0 0.0 34.63643526849801" Properties=species:S:1:pos:R:3:initial_magmoms:R:1 pbc="T T T"
Si       2.20242429       0.41681223      -0.65830046       0.00000000
Si      -0.26352333      -2.29436505      -0.49696385       0.00000000
Si       0.11474676      -0.11170053       2.36390339       0.00000000
Si      -1.56763557       1.66021164      -0.77467894       0.00000000
Si      -2.35893861      -0.22214673      -2.28746074       0.00000000
Si       3.04080610      -1.02071511       0.97754466       0.00000000
Si       1.98506682      -2.93860197       0.01510149       0.00000000
Si      -0.54416745       2.07241380       2.92778487       0.00000000
Si      -2.32261191       2.43924831       1.35341946       0.00000000
Si      -1.56932973      -1.76950125       2.87524137       0.00000000
