10
Lattice="16.28999089631971 0.0 0.0 0.0 16.28999089631971 0.0 0.0 0.0 34.63643526849801" Properties=species:S:1:pos:R:3:initial_magmoms:R:1 pbc="T T T"
Si      -1.35578412      -1.35871632       1.35750657       0.00000000
Si       1.35953082       1.35597960       1.35729875       0.00000000
Si      -1.35938421       1.35887922      -1.35473565       0.00000000
Si       1.36151820      -1.35904212      -1.36183612       0.00000000
Si       2.70883309      -0.00131949      -2.70481616       0.00000000
Si      -2.71145421       2.71145747       0.00041564       0.00000000
Si      -2.71349046      -0.00053757       2.71438968       0.00000000
Si       0.00179190       2.71411072       2.71404331       0.00000000
Si      -2.71278999      -2.71627605       0.00031173       0.00000000
Si       2.71647895       2.71364070      -0.00038100       0.00000000
