10
Lattice="16.28999089631971 0.0 0.0 0.0 16.28999089631971 0.0 0.0 0.0 34.63643526849801" Properties=species:S:1:pos:R:3:initial_magmoms:R:1 pbc="T T T"
Si      -0.69030504      -1.98011466      -1.03445235       0.00000000
Si      -0.80568711       0.08392608       2.20873207       0.00000000
Si      -1.49511249       1.55027043      -1.01242357       0.00000000
Si       2.34494780       0.05637969       0.45013536       0.00000000
Si      -3.40869879       1.38507354       0.36565705       0.00000000
Si       0.58394763      -2.03625000      -3.07000216       0.00000000
Si       2.48766123      -0.96122403       2.61013395       0.00000000
Si      -2.16681435      -1.88286336       2.44474488       0.00000000
Si      -0.94605804       3.64829930      -0.18274193       0.00000000
Si       1.00572831       0.48847194       3.65774815       0.00000000
