10
Lattice="16.28999089631971 0.0 0.0 0.0 16.28999089631971 0.0 0.0 0.0 34.63643526849801" Properties=species:S:1:pos:R:3:initial_magmoms:R:1 pbc="T T T"
Si       1.48193292      -1.44969597      -1.04761421       0.00000000
Si      -1.81141542      -0.40454586      -1.44901608       0.00000000
Si      -0.58492503      -0.15187167       2.30450187       0.00000000
Si       1.43005742       1.84614963      -0.59204092       0.00000000
Si       1.33921949      -0.43209225      -3.20761279       0.00000000
Si       3.42383939      -0.79721631       0.11312266       0.00000000
Si       3.10126481       1.38181784       1.16077150       0.00000000
Si      -0.03456738       3.64996088      -0.63021029       0.00000000
Si      -1.57167549       1.97714892       2.77656211       0.00000000
Si      -3.34795338       1.34477845      -1.22484894       0.00000000
