10
Lattice="16.28999089631971 0.0 0.0 0.0 16.28999089631971 0.0 0.0 0.0 34.63643526849801" Properties=species:S:1:pos:R:3:initial_magmoms:R:1 pbc="T T T"
Si       1.32237333       1.88988435      -0.34743828       0.00000000
Si       0.79713486      -1.32432813       1.77730040       0.00000000
Si      -2.21331253       0.85670739       0.13584418       0.00000000
Si       0.08192241      -1.46795706      -1.89676153       0.00000000
Si      -0.59724027      -3.19784103       1.26436914       0.00000000
Si      -1.64481922      -0.27289008      -3.14329289       0.00000000
Si      -3.41325089      -0.10803528      -1.63224292       0.00000000
Si       3.33677844       1.59912414       0.80990422       0.00000000
Si       0.14825529      -3.73001904      -0.90224501       0.00000000
Si       0.75313557       2.83718043      -2.51173178       0.00000000
