10
Lattice="16.28999089631971 0.0 0.0 0.0 16.28999089631971 0.0 0.0 0.0 34.63643526849801" Properties=species:S:1:pos:R:3:initial_magmoms:R:1 pbc="T T T"
Si       1.35838051      -1.35383295      -1.35806075       0.00000000
Si      -1.35694813      -1.35766110       1.35767975       0.00000000
Si       1.35818666       1.35754537       1.35740266       0.00000000
Si      -1.35626395       1.35808620      -1.36090094       0.00000000
Si      -0.00764587      -2.71496019      -2.70443516       0.00000000
Si       2.70620859       0.00397960      -2.71806114       0.00000000
Si      -2.71468705       0.00047002       2.71442431       0.00000000
Si       0.00026253       2.71487867       2.71504777       0.00000000
Si       0.00056670      -2.71484616       2.71522095       0.00000000
Si      -2.71647895      -2.71364070       0.00038100       0.00000000
