10
Lattice="16.28999089631971 0.0 0.0 0.0 16.28999089631971 0.0 0.0 0.0 34.63643526849801" Properties=species:S:1:pos:R:3:initial_magmoms:R:1 pbc="T T T"
Si      -1.02912075       0.07451046       2.24045907       0.00000000
Si       1.04301612      -2.02883805      -1.15962850       0.00000000
Si       2.07179478       1.49876145       0.16705162       0.00000000
Si      -1.95311236       0.79941546      -1.50194058       0.00000000
Si      -0.20403225       1.71408267      -2.77306383       0.00000000
Si       1.02415230       3.17941704      -1.22550704       0.00000000
Si       0.78161049       0.96317883       3.62335415       0.00000000
Si       2.46221721      -0.97422345      -2.78248495       0.00000000
Si       3.71338695       0.47879568      -1.32602203       0.00000000
Si      -3.22458011       1.13166630       2.04632174       0.00000000
