10
Lattice="16.28999089631971 0.0 0.0 0.0 16.28999089631971 0.0 0.0 0.0 34.63643526849801" Properties=species:S:1:pos:R:3:initial_magmoms:R:1 pbc="T T T"
Si       1.74908011       0.91466721      -1.27112325       0.00000000
Si      -1.07136139      -1.79406657      -1.25086092       0.00000000
Si       1.95311236      -0.79941546       1.50194058       0.00000000
Si      -1.95577807       1.86426018       0.07987166       0.00000000
Si       0.87808639       3.09855348       1.27638799       0.00000000
Si       0.35842398       2.27020698      -2.66627964       0.00000000
Si      -2.35874380      -0.45336699      -2.69575526       0.00000000
Si      -1.27146775       0.33225084       3.54826232       0.00000000
Si       2.97726466       2.38000158       0.27643354       0.00000000
Si       0.92399161      -0.72490500       3.74239965       0.00000000
