10
Lattice="16.28999089631971 0.0 0.0 0.0 16.28999089631971 0.0 0.0 0.0 34.63643526849801" Properties=species:S:1:pos:R:3:initial_magmoms:R:1 pbc="T T T"
Si      -1.20352149       1.46618145       1.37704153       0.00000000
Si       2.05099245       0.82372014      -0.97685193       0.00000000
Si       0.56923776      -0.94729608       2.16429350       0.00000000
Si      -1.81073124      -0.88866837      -1.38289509       0.00000000
Si      -0.00148239       1.05959934       3.35187362       0.00000000
Si       1.29018429       0.53558262      -3.45630253       0.00000000
Si      -3.09596500       0.32013108       2.09751442       0.00000000
Si       3.73106160      -0.71169381      -0.02247906       0.00000000
Si      -0.78161049      -0.96317883      -3.62335415       0.00000000
Si      -0.75313557      -2.83718043       2.51173178       0.00000000
