10
Lattice="16.28999089631971 0.0 0.0 0.0 16.28999089631971 0.0 0.0 0.0 34.63643526849801" Properties=species:S:1:pos:R:3:initial_magmoms:R:1 pbc="T T T"
Si      -0.58722355      -2.22140214       0.75133397       0.00000000
Si      -2.19545936       1.05715584      -0.19413733       0.00000000
Si       1.81073124       0.88866837       1.38289509       0.00000000
Si       1.02912075      -0.07451046      -2.24045907       0.00000000
Si      -1.73334885      -2.80207548      -1.12991042       0.00000000
Si       0.60720975       2.35484982       2.75993661       0.00000000
Si      -2.35565522      -2.05654734       2.26238394       0.00000000
Si      -1.28523376       1.20879945       3.48040951       0.00000000
Si      -3.03296084       1.44363609       2.02387732       0.00000000
Si      -0.92399161       0.72490500      -3.74239965       0.00000000
