10
Lattice="16.28999089631971 0.0 0.0 0.0 16.28999089631971 0.0 0.0 0.0 34.63643526849801" Properties=species:S:1:pos:R:3:initial_magmoms:R:1 pbc="T T T"
Si      -1.20203910       0.40658211      -1.97483210       0.00000000
Si       1.74812877       1.54108287       0.31380628       0.00000000
Si      -0.77533884      -0.50117814       2.19806405       0.00000000
Si       0.57072015      -2.00689542      -1.18758012       0.00000000
Si      -3.09448261      -0.73946826      -1.25435920       0.00000000
Si       2.58512526      -2.29765563      -0.03023762       0.00000000
Si       0.00148239      -1.05959934      -3.35187362       0.00000000
Si       2.78513388       0.64014813       2.22030065       0.00000000
Si       2.45342061      -1.69732026       2.30720352       0.00000000
Si      -1.01631681       3.09975894       1.91955232       0.00000000
