10
Lattice="16.28999089631971 0.0 0.0 0.0 16.28999089631971 0.0 0.0 0.0 34.63643526849801" Properties=species:S:1:pos:R:3:initial_magmoms:R:1 pbc="T T T"
Si       1.33043110      -1.29182958      -1.41572006       0.00000000
Si      -1.34731489      -1.35772263       1.34298004       0.00000000
Si       1.36602638       1.36112724       1.34637441       0.00000000
Si      -1.43114323       1.22992758      -1.40680117       0.00000000
Si      -2.70883309       0.00131949       2.70481616       0.00000000
Si       0.00764587       2.71496019       2.70443516       0.00000000
Si       0.00782666      -2.71614573       2.70519716       0.00000000
Si       2.72240671      -2.70094716      -0.02249638       0.00000000
Si       2.72366104      -0.00022806       2.70561280       0.00000000
Si      -2.72481358       2.70718623      -0.03106197       0.00000000
