10
Lattice="16.28999089631971 0.0 0.0 0.0 16.28999089631971 0.0 0.0 0.0 34.63643526849801" Properties=species:S:1:pos:R:3:initial_magmoms:R:1 pbc="T T T"
Si      -0.67113334       2.06273754      -0.89289316       0.00000000
Si       2.09917827      -0.71855190      -0.99995445       0.00000000
Si      -0.92747930       0.67261410       2.23872724       0.00000000
Si      -1.90290725       0.54721368      -2.40629841       0.00000000
Si      -2.83386446      -1.23429330      -1.19651633       0.00000000
Si      -0.87808639      -3.09855348      -1.27638799       0.00000000
Si       0.87099372      -2.18388627      -2.54751124       0.00000000
Si      -1.26466763       3.02440140       1.31528473       0.00000000
Si      -3.00678281      -0.50293746       2.27945972       0.00000000
Si       3.14682075      -2.39920749       0.39260421       0.00000000
