10
Lattice="16.28999089631971 0.0 0.0 0.0 16.28999089631971 0.0 0.0 0.0 34.63643526849801" Properties=species:S:1:pos:R:3:initial_magmoms:R:1 pbc="T T T"
Si       0.67113334      -2.06273754       0.89289316       0.00000000
Si       1.40504671       1.13699313      -1.58610717       0.00000000
Si      -1.23177391      -1.51552386      -1.51340525       0.00000000
Si      -0.59353429       0.96166386       2.20817789       0.00000000
Si      -0.25634596      -1.39012344       3.13162041       0.00000000
Si       2.63663587       2.63212747      -0.19552279       0.00000000
Si      -2.74887790       2.05211224       1.89499507       0.00000000
Si       2.77031161      -2.78128944      -0.10706128       0.00000000
Si      -2.16273112      -3.29703084      -0.30362316       0.00000000
Si       0.13642223       2.52113881      -3.05119456       0.00000000
