10
Lattice="16.28999089631971 0.0 0.0 0.0 16.28999089631971 0.0 0.0 0.0 34.279985188174585" Properties=species:S:1:pos:R:3:initial_magmoms:R:1 pbc="T T T"
Si       2.14814601       0.41175974      -0.81891502       0.00000000
Si      -1.99917722       0.32442254      -1.21306651       0.00000000
Si       0.39589587      -2.33750097      -0.33913208       0.00000000
Si      -0.20136069       0.61878772       2.33823910       0.00000000
Si      -0.89555904      -1.51936830       3.02750714       0.00000000
Si       3.53465307      -0.71684145       0.86557011       0.00000000
Si      -0.10831221      -3.29939289       1.74402950       0.00000000
Si       2.62386288       2.70939257      -0.56647707       0.00000000
Si      -2.59557301      -1.81615581      -2.14531123       0.00000000
Si      -0.55772073      -3.00816027      -2.35644178       0.00000000
