10
Lattice="16.28999089631971 0.0 0.0 0.0 16.28999089631971 0.0 0.0 0.0 34.279985188174585" Properties=species:S:1:pos:R:3:initial_magmoms:R:1 pbc="T T T"
Si      -1.30012119       1.39823749       1.36527659       0.00000000
Si       0.86073102       1.85344525      -1.18577312       0.00000000
Si       1.44433656      -1.33161383       1.33331049       0.00000000
Si      -1.62513927      -1.01158456      -1.47051419       0.00000000
Si      -2.61311148      -2.64092407      -0.03669674       0.00000000
Si      -2.73359232       2.62329436      -0.08894290       0.00000000
Si      -2.64438828       0.03765759       2.72403655       0.00000000
Si      -3.49640415       0.64489015      -1.39047037       0.00000000
Si       0.07092666      -2.68119295       2.71841463       0.00000000
Si      -0.91901664       3.46687201      -1.38762513       0.00000000
