10
Lattice="16.28999089631971 0.0 0.0 0.0 16.28999089631971 0.0 0.0 0.0 34.279985188174585" Properties=species:S:1:pos:R:3:initial_magmoms:R:1 pbc="T T T"
Si      -1.06147269      -1.68877127       1.24844348       0.00000000
Si       1.34915409       1.45026612       1.28135228       0.00000000
Si      -1.38974877       1.30904811      -1.44449082       0.00000000
Si       1.31520573      -1.39539488      -1.45837422       0.00000000
Si      -0.78263676       1.98032643       2.41056991       0.00000000
Si       1.76458167      -1.85489506       2.36891970       0.00000000
Si      -2.80240128       2.59512732       0.00198824       0.00000000
Si       2.56762980      -2.89628774      -0.11668913       0.00000000
Si      -0.03106503       2.66765040      -2.82127864       0.00000000
Si       2.74794381       2.75177196      -0.10191445       0.00000000
