10
Lattice="16.28999089631971 0.0 0.0 0.0 16.28999089631971 0.0 0.0 0.0 34.279985188174585" Properties=species:S:1:pos:R:3:initial_magmoms:R:1 pbc="T T T"
Si      -0.40437481      -0.97264332       2.09018898       0.00000000
Si       1.71629322      -1.25552636      -0.98887529       0.00000000
Si       0.93520401       2.16736821       0.03859928       0.00000000
Si      -2.03927572      -0.34519324      -1.18701371       0.00000000
Si      -1.00077061      -3.11322167       1.15794427       0.00000000
Si       2.69659284       0.32882505      -2.45640227       0.00000000
Si      -2.34432226      -2.71719548      -0.90389515       0.00000000
Si       1.66211268       2.41311915      -2.38242602       0.00000000
Si      -0.66146685       3.61113462       1.11259182       0.00000000
Si      -1.99107361       0.35555857       3.28755526       0.00000000
