10
Lattice="16.28999089631971 0.0 0.0 0.0 16.28999089631971 0.0 0.0 0.0 34.279985188174585" Properties=species:S:1:pos:R:3:initial_magmoms:R:1 pbc="T T T"
Si      -0.40277025       2.26434258       0.46223158       0.00000000
Si      -0.60763329       0.13867677      -2.27560953       0.00000000
Si      -1.03216698      -1.60089975       1.42429990       0.00000000
Si       2.29794885      -0.57896289       0.21781515       0.00000000
Si       0.84242106      -1.52226792      -3.18780044       0.00000000
Si       0.75865788       3.33985725      -1.28567156       0.00000000
Si       2.84514624      -1.19685888      -1.99259381       0.00000000
Si      -1.05059097      -0.48500217       3.56292653       0.00000000
Si       2.31381531      -2.36551977       1.76295206       0.00000000
Si       0.34919244      -3.56511537       1.34086237       0.00000000
