10
Lattice="16.28999089631971 0.0 0.0 0.0 16.28999089631971 0.0 0.0 0.0 34.279985188174585" Properties=species:S:1:pos:R:3:initial_magmoms:R:1 pbc="T T T"
Si       0.54719739      -0.61789599      -2.21040896       0.00000000
Si       0.01586646      -1.78655688       1.54513692       0.00000000
Si       1.67601294       1.44244692       0.85031551       0.00000000
Si      -2.29794885       0.57896289      -0.21781515       0.00000000
Si      -3.33011583      -1.02193686       1.20648475       0.00000000
Si       3.65036094       0.09396072       0.73547749       0.00000000
Si      -1.94875641      -2.98615248       1.12304722       0.00000000
Si       0.89270829       1.37288862      -3.42100731       0.00000000
Si      -1.45552779      -0.94330503      -3.40561559       0.00000000
Si       1.77072300      -3.28688217       1.10676422       0.00000000
