10
Lattice="16.28999089631971 0.0 0.0 0.0 16.28999089631971 0.0 0.0 0.0 34.279985188174585" Properties=species:S:1:pos:R:3:initial_magmoms:R:1 pbc="T T T"
Si      -1.36446669       1.71173691       0.79968394       0.00000000
Si      -0.09958077      -1.91997198       1.32978993       0.00000000
Si       0.10407681      -0.66497409      -2.25226485       0.00000000
Si       1.98790128       1.11586500       0.58125175       0.00000000
Si       2.09966697      -2.47440213       0.82316574       0.00000000
Si       0.02943603      -0.68517369       3.32234946       0.00000000
Si      -3.26032947       1.21554351      -0.45229038       0.00000000
Si       3.50606412      -0.65217015       0.22950463       0.00000000
Si       1.65214809       3.12958593      -0.67538465       0.00000000
Si      -1.05513588       1.48985082       3.16826084       0.00000000
