10
Lattice="16.28999089631971 0.0 0.0 0.0 16.28999089631971 0.0 0.0 0.0 34.279985188174585" Properties=species:S:1:pos:R:3:initial_magmoms:R:1 pbc="T T T"
Si      -1.35410625       1.34671059      -1.42262018       0.00000000
Si       1.35747828      -1.34874684      -1.42405994       0.00000000
Si      -1.39551543      -1.41437925       1.39193958       0.00000000
Si       1.35971001       1.53644022       1.42793358       0.00000000
Si      -2.79077022       2.59861338      -0.01594020       0.00000000
Si       2.78067042      -2.63673198      -0.06574905       0.00000000
Si      -2.58292611       0.05194881       2.87259580       0.00000000
Si      -2.71269225      -0.00560376      -2.78528463       0.00000000
Si       0.00333945       2.71269225      -2.78713575       0.00000000
Si       2.71409319      -0.00288333      -2.78699863       0.00000000
