10
Lattice="16.28999089631971 0.0 0.0 0.0 16.28999089631971 0.0 0.0 0.0 34.279985188174585" Properties=species:S:1:pos:R:3:initial_magmoms:R:1 pbc="T T T"
Si       1.36717083       1.24007625      -1.45426062       0.00000000
Si       1.54090368      -1.30785894       1.39135682       0.00000000
Si      -0.77822217       1.02405456       2.10907727       0.00000000
Si      -1.35971001      -1.53644022      -1.42793358       0.00000000
Si      -0.32835753      -2.02406508       2.75275291       0.00000000
Si      -2.26769832      -0.65663361       2.84880548       0.00000000
Si       2.34040059       3.00185604      -0.13280074       0.00000000
Si      -0.01319490       2.53144971      -2.84877120       0.00000000
Si       2.71241532      -0.18047691      -2.84311500       0.00000000
Si      -2.71381626      -0.18972963      -2.85055376       0.00000000
