10
Lattice="16.28999089631971 0.0 0.0 0.0 16.28999089631971 0.0 0.0 0.0 34.279985188174585" Properties=species:S:1:pos:R:3:initial_magmoms:R:1 pbc="T T T"
Si      -1.67493780      -0.82785780      -1.40414326       0.00000000
Si      -0.78980436       0.33089877       2.19405740       0.00000000
Si       1.48947615       1.68068817      -0.73972821       0.00000000
Si       1.93934079      -1.36743147      -0.09605257       0.00000000
Si       0.07799652       3.45916521      -0.82782782       0.00000000
Si      -0.86915295      -1.95520725       2.93663085       0.00000000
Si      -3.05842306      -2.03550066       0.09800653       0.00000000
Si       2.26769832       0.65663361      -2.84880548       0.00000000
Si      -0.48752712      -2.29418586      -2.88479949       0.00000000
Si       2.67072921       2.24015193       1.37987301       0.00000000
