10
Lattice="16.28999089631971 0.0 0.0 0.0 16.28999089631971 0.0 0.0 0.0 34.279985188174585" Properties=species:S:1:pos:R:3:initial_magmoms:R:1 pbc="T T T"
Si      -2.09378628       0.63306198       0.81483570       0.00000000
Si       0.11207520      -0.56555622      -2.27170161       0.00000000
Si       1.40452380       1.81550421       0.53562507       0.00000000
Si       0.33575319      -2.01372093       1.25663640       0.00000000
Si       3.26800206       0.39126951       0.57165335       0.00000000
Si      -1.65214809      -3.12958593       0.67538465       0.00000000
Si      -3.01661478      -1.41784902       1.47506859       0.00000000
Si      -1.47183408       1.86543306       2.78963819       0.00000000
Si       2.08642320      -1.91404242      -2.38653962       0.00000000
Si       0.73379934      -1.35013149       3.48349976       0.00000000
