10
Lattice="16.28999089631971 0.0 0.0 0.0 16.28999089631971 0.0 0.0 0.0 34.279985188174585" Properties=species:S:1:pos:R:3:initial_magmoms:R:1 pbc="T T T"
Si       1.35692442       1.35733849      -1.35721393       0.00000000
Si      -1.35812988      -1.35762489      -1.35721393       0.00000000
Si       1.35734796      -1.35677781       1.35981921       0.00000000
Si      -1.36075257       1.36025001       1.35975065       0.00000000
Si      -2.69783577      -0.01259217       2.71816438       0.00000000
Si       2.71435383      -0.00048870      -2.71480494       0.00000000
Si      -0.00104256       2.71494909      -2.71422218       0.00000000
Si       2.71355562      -2.71580364       0.00023996       0.00000000
Si      -2.71538010      -0.00003258      -2.71442786       0.00000000
Si      -0.00013032      -2.71526607      -2.71473638       0.00000000
