10
Lattice="16.28999089631971 0.0 0.0 0.0 16.28999089631971 0.0 0.0 0.0 34.279985188174585" Properties=species:S:1:pos:R:3:initial_magmoms:R:1 pbc="T T T"
Si       1.43347113      -1.22505687       1.45421949       0.00000000
Si       1.81457568       0.84357765      -1.29868224       0.00000000
Si      -1.27926999       1.49118660       1.41079701       0.00000000
Si      -0.76281183      -1.97840421      -1.30152748       0.00000000
Si      -2.54962609      -2.58444108       0.14324585       0.00000000
Si       0.60704685       0.43815213      -3.65735221       0.00000000
Si       2.73359232      -2.62329436       0.08894290       0.00000000
Si       0.08920404      -2.58563677       2.81297945       0.00000000
Si       3.59432334      -0.76984911      -1.09683022       0.00000000
Si      -2.62925487       0.13030371       2.80650053       0.00000000
