10
Lattice="16.28999089631971 0.0 0.0 0.0 16.28999089631971 0.0 0.0 0.0 34.279985188174585" Properties=species:S:1:pos:R:3:initial_magmoms:R:1 pbc="T T T"
Si      -1.30003974       1.37468052      -1.45861418       0.00000000
Si       1.38425904      -1.32721146      -1.45213526       0.00000000
Si      -1.72936269      -1.09918404       1.28450604       0.00000000
Si       1.89190431       0.80325990       1.31940309       0.00000000
Si      -0.79224786      -1.05612957       3.41761359       0.00000000
Si       2.63810034       2.61009783      -0.11182137       0.00000000
Si      -2.63510298       2.68771968      -0.07569025       0.00000000
Si       2.76462477      -2.61858492      -0.05762469       0.00000000
Si      -2.67243966       0.02676447      -2.81606808       0.00000000
Si       0.04108338      -2.68240914      -2.81843340       0.00000000
