10
Lattice="16.28999089631971 0.0 0.0 0.0 16.28999089631971 0.0 0.0 0.0 34.279985188174585" Properties=species:S:1:pos:R:3:initial_magmoms:R:1 pbc="T T T"
Si      -1.15505874      -0.32057091      -1.96969477       0.00000000
Si       2.13661269      -0.97184511      -0.31527320       0.00000000
Si      -1.63435941      -0.84678678       1.53800667       0.00000000
Si      -0.05631453       2.38394376      -0.26453879       0.00000000
Si      -3.19507173       0.76328424      -1.46924099       0.00000000
Si      -1.21090086      -2.67577911      -2.14822503       0.00000000
Si       3.23569899      -0.76305618       1.71873086       0.00000000
Si      -3.69927981      -0.19860768       0.61392060       0.00000000
Si       0.24513192       0.34982775      -3.73374379       0.00000000
Si       2.31883263       1.09885824       2.86639112       0.00000000
