10
Lattice="16.28999089631971 0.0 0.0 0.0 16.28999089631971 0.0 0.0 0.0 34.279985188174585" Properties=species:S:1:pos:R:3:initial_magmoms:R:1 pbc="T T T"
Si       1.15505874       0.32057091       1.96969477       0.00000000
Si       1.40019066       0.67039866      -1.76404902       0.00000000
Si      -0.05584212      -2.35520820      -0.17853026       0.00000000
Si      -2.04001299       1.08385515       0.50045378       0.00000000
Si       1.09874421       2.70451467       1.70515598       0.00000000
Si      -2.99362959       0.41319585      -1.51685591       0.00000000
Si      -0.47930067      -0.52621587       3.50770144       0.00000000
Si      -2.54422107       0.12196323       2.58361537       0.00000000
Si       2.06580006      -2.92802976      -0.94468836       0.00000000
Si       2.11774887      -1.36102950      -2.72522607       0.00000000
