10
Lattice="16.28999089631971 0.0 0.0 0.0 16.28999089631971 0.0 0.0 0.0 34.279985188174585" Properties=species:S:1:pos:R:3:initial_magmoms:R:1 pbc="T T T"
Si      -0.24058701       1.68831582      -1.62915721       0.00000000
Si      -1.62191385      -1.69855830       0.22532247       0.00000000
Si      -0.33510159       1.15437456       2.04949862       0.00000000
Si       2.19698343      -0.74028276      -0.55238799       0.00000000
Si       2.89429317      -1.54671921       1.53008799       0.00000000
Si       1.75984128       2.91237248      -1.29948640       0.00000000
Si      -1.82417049       3.03323288       1.04499165       0.00000000
Si      -1.75620861      -2.68592778      -1.88077244       0.00000000
Si      -0.17816373       0.54480276      -3.68331791       0.00000000
Si      -1.14209190      -0.77967198       3.48212856       0.00000000
