10
Lattice="16.28999089631971 0.0 0.0 0.0 16.28999089631971 0.0 0.0 0.0 34.279985188174585" Properties=species:S:1:pos:R:3:initial_magmoms:R:1 pbc="T T T"
Si      -1.35855342       1.35594050       1.36221881       0.00000000
Si       1.35812988      -1.35971464       1.36057337       0.00000000
Si      -1.33996653      -1.37021299      -1.38380150       0.00000000
Si       1.36653552       1.33979711      -1.39395181       0.00000000
Si      -2.71292031       2.71376087       0.00387364       0.00000000
Si       2.71581993       2.71247396       0.00017140       0.00000000
Si       2.71417464      -2.71611056       0.00373652       0.00000000
Si       0.00073305       2.71296266       2.71881570       0.00000000
Si      -2.71337643      -2.71979210       0.00130264       0.00000000
Si      -2.71461447      -0.00204114       2.71932990       0.00000000
