10
Lattice="16.28999089631971 0.0 0.0 0.0 16.28999089631971 0.0 0.0 0.0 34.279985188174585" Properties=species:S:1:pos:R:3:initial_magmoms:R:1 pbc="T T T"
Si       2.08444559      -0.97936850       0.34581668       0.00000000
Si      -1.91021168      -1.23212414       0.67044832       0.00000000
Si       0.48826832       1.72808555       1.57657168       0.00000000
Si      -0.05239027       0.72530736      -2.30978669       0.00000000
Si       0.01315580       3.08341355      -1.91796624       0.00000000
Si       1.88655467      -3.05414435      -0.66684892       0.00000000
Si      -3.48569903       0.53604200       1.02291533       0.00000000
Si       2.61799196       2.47679024       0.93416440       0.00000000
Si       1.38021260       0.57014348       3.45964088       0.00000000
Si      -2.27367416      -2.95922252      -0.93762668       0.00000000
