10
Lattice="16.28999089631971 0.0 0.0 0.0 16.28999089631971 0.0 0.0 0.0 34.279985188174585" Properties=species:S:1:pos:R:3:initial_magmoms:R:1 pbc="T T T"
Si      -1.25524224      -1.55646389       1.29084784       0.00000000
Si       1.46305377       1.10322396       1.57242380       0.00000000
Si      -1.19990511       1.40838453      -1.55723776       0.00000000
Si       1.52018280      -1.29677034      -1.53173343       0.00000000
Si       0.32071752      -2.87563202       2.42339063       0.00000000
Si       2.74170474       2.61449613       0.00335944       0.00000000
Si      -2.49267951       2.85276996      -0.21140479       0.00000000
Si      -2.67299352      -2.79528974      -0.22617947       0.00000000
Si      -2.55402765       0.05162301      -2.93183165       0.00000000
Si       0.99131166      -0.97036272       3.67923859       0.00000000
