10
Lattice="16.28999089631971 0.0 0.0 0.0 16.28999089631971 0.0 0.0 0.0 34.279985188174585" Properties=species:S:1:pos:R:3:initial_magmoms:R:1 pbc="T T T"
Si      -1.75485654       1.50032529       0.43837270       0.00000000
Si      -0.21742263      -1.65699599       1.65726681       0.00000000
Si       1.93738599       1.24276410       0.59681488       0.00000000
Si      -0.64514916      -0.93729402      -2.09975311       0.00000000
Si       0.24073362      -0.30910275       3.51380329       0.00000000
Si       1.64713077       1.51312923       2.92014217       0.00000000
Si      -0.25941825      -3.22485704      -1.77848091       0.00000000
Si       1.30800555      -0.60605316      -3.40534135       0.00000000
Si      -3.71947941       0.30072969       0.01628300       0.00000000
Si       2.98108629      -1.37823174      -1.82763843       0.00000000
