10
Lattice="16.28999089631971 0.0 0.0 0.0 16.28999089631971 0.0 0.0 0.0 34.279985188174585" Properties=species:S:1:pos:R:3:initial_magmoms:R:1 pbc="T T T"
Si       1.35441576      -1.35734796      -1.35968209       0.00000000
Si      -1.35974259       1.35739683      -1.36026485       0.00000000
Si      -1.36122498      -1.35321030       1.36979469       0.00000000
Si       1.36971207       1.34179101       1.38117566       0.00000000
Si       2.71002069       2.71713942      -0.00130264       0.00000000
Si       2.71360449       0.00074934      -2.71741022       0.00000000
Si      -2.71925712      -2.71205694      -0.00202252       0.00000000
Si      -2.71595025       2.71642266      -0.00068560       0.00000000
Si      -0.00097740      -2.71497285      -2.71771874       0.00000000
Si       2.71595025      -2.71740006       0.00219392       0.00000000
