10
Lattice="16.28999089631971 0.0 0.0 0.0 16.28999089631971 0.0 0.0 0.0 34.279985188174585" Properties=species:S:1:pos:R:3:initial_magmoms:R:1 pbc="T T T"
Si       1.67518215       1.61147196       0.16972030       0.00000000
Si      -1.86347826       1.42423470      -0.03602828       0.00000000
Si       0.60240420      -1.04835924      -2.02512554       0.00000000
Si      -0.40040820      -0.87798213       2.19902800       0.00000000
Si      -3.26800206      -0.39126951      -0.57165335       0.00000000
Si       0.95923665       2.53643445       2.26501701       0.00000000
Si       1.43001765      -2.34458712       2.35219106       0.00000000
Si      -0.51730524       1.12275567       3.40534135       0.00000000
Si       1.26457641       0.77310711      -3.39135511       0.00000000
Si       1.80159255       2.61454500      -1.98354389       0.00000000
