10
Lattice="16.28999089631971 0.0 0.0 0.0 16.28999089631971 0.0 0.0 0.0 34.279985188174585" Properties=species:S:1:pos:R:3:initial_magmoms:R:1 pbc="T T T"
Si       1.48172211      -1.22751666      -1.28049528       0.00000000
Si      -1.57595976       1.31916813      -1.13254278       0.00000000
Si      -0.04333140      -1.52739927       1.78729087       0.00000000
Si       0.67059414       1.90526930       1.25584796       0.00000000
Si      -1.86440679      -0.54957573       2.75484399       0.00000000
Si      -1.33477002       1.74099931       2.66862978       0.00000000
Si      -0.13659165      -2.46396024      -2.62262601       0.00000000
Si       2.73202848      -2.57181633       0.32511156       0.00000000
Si      -0.32071752       2.87563202      -2.42339063       0.00000000
Si      -0.82435545      -3.58381629       0.86550155       0.00000000
