10
Lattice="16.28999089631971 0.0 0.0 0.0 16.28999089631971 0.0 0.0 0.0 34.279985188174585" Properties=species:S:1:pos:R:3:initial_magmoms:R:1 pbc="T T T"
Si       1.15264782      -1.94393457      -0.50281910       0.00000000
Si      -2.09363967      -0.02142135      -1.02901717       0.00000000
Si      -0.50424066      -0.16337241       2.28654485       0.00000000
Si       1.14686487       1.82520395      -1.07817470       0.00000000
Si      -2.05164405       1.54643969       2.40673055       0.00000000
Si      -0.48387816      -3.08773692      -1.70813834       0.00000000
Si      -2.47937058       2.26614167      -1.35028937       0.00000000
Si      -1.85109786      -1.53741762      -2.78960391       0.00000000
Si       1.50860061       0.20738671       3.35786355       0.00000000
Si      -0.52621587       2.59738253      -2.65587762       0.00000000
