10
Lattice="16.28999089631971 0.0 0.0 0.0 16.28999089631971 0.0 0.0 0.0 34.279985188174585" Properties=species:S:1:pos:R:3:initial_magmoms:R:1 pbc="T T T"
Si       1.35697329       1.35804843       1.35642549       0.00000000
Si      -1.35796698      -1.35714434       1.35635693       0.00000000
Si       1.35713619      -1.35814128      -1.36088189       0.00000000
Si      -1.35809730       1.35752715      -1.36191029       0.00000000
Si      -0.00239463      -2.70145958      -2.71719769       0.00000000
Si       2.71425760       0.00035838       2.71459926       0.00000000
Si      -0.00055386      -2.71450419       2.71435930       0.00000000
Si      -2.71533123       0.00091224       2.71422218       0.00000000
Si      -0.00115659       2.71534752       2.71429074       0.00000000
Si       2.71477748      -2.71519850      -0.00003428       0.00000000
