10
Lattice="16.28999089631971 0.0 0.0 0.0 16.28999089631971 0.0 0.0 0.0 34.279985188174585" Properties=species:S:1:pos:R:3:initial_magmoms:R:1 pbc="T T T"
Si       1.35796698       1.35714434      -1.35635693       0.00000000
Si       1.35741312      -1.35735985       1.35800237       0.00000000
Si      -1.35782037      -1.35751712      -1.35786525       0.00000000
Si      -1.35736425       1.35805658       1.35786525       0.00000000
Si      -2.71345788       0.00118591       2.71387938       0.00000000
Si      -0.00083079      -2.71492302       2.71288526       0.00000000
Si      -0.00177561      -2.71391304      -2.71470210       0.00000000
Si       2.71358820      -0.00090410       2.71531914       0.00000000
Si       2.71485882      -2.71498818       0.00030852       0.00000000
Si       2.71494027       2.71519276       0.00006856       0.00000000
