10
Lattice="16.28999089631971 0.0 0.0 0.0 16.28999089631971 0.0 0.0 0.0 34.279985188174585" Properties=species:S:1:pos:R:3:initial_magmoms:R:1 pbc="T T T"
Si      -1.35035955      -1.33876107      -1.40438322       0.00000000
Si       1.36206849       1.37753127      -1.40116090       0.00000000
Si      -1.48323708       1.21977891       1.52971091       0.00000000
Si       1.36976575      -1.53068985       1.62977425       0.00000000
Si      -2.70475902      -2.69148756      -0.00538196       0.00000000
Si       2.72884446      -2.69762726      -0.02135644       0.00000000
Si      -2.71231758       2.73316878      -0.01234080       0.00000000
Si       2.72456996       2.72534958      -0.02183636       0.00000000
Si       0.00487071      -2.69894349      -2.76457951       0.00000000
Si      -2.70774009       0.01743030      -2.76523083       0.00000000
