10
Lattice="16.28999089631971 0.0 0.0 0.0 16.28999089631971 0.0 0.0 0.0 34.279985188174585" Properties=species:S:1:pos:R:3:initial_magmoms:R:1 pbc="T T T"
Si      -1.35583299      -1.35702216       1.35673401       0.00000000
Si       1.35791811       1.35793440       1.35635693       0.00000000
Si      -1.35698958       1.35755973      -1.35783097       0.00000000
Si       1.35812988      -1.35729909      -1.35786525       0.00000000
Si      -2.71401174       2.71453302      -0.00003428       0.00000000
Si      -2.71417464      -2.71443528      -0.00006856       0.00000000
Si      -2.71158453       0.00016290       2.71795870       0.00000000
Si       0.00115659      -2.71534752      -2.71429074       0.00000000
Si       2.71541419      -2.71498914       0.00030852       0.00000000
Si      -2.71591767       0.00070047      -2.71480494       0.00000000
