10
Lattice="16.28999089631971 0.0 0.0 0.0 16.28999089631971 0.0 0.0 0.0 34.279985188174585" Properties=species:S:1:pos:R:3:initial_magmoms:R:1 pbc="T T T"
Si      -0.85164120       0.15455952       2.15943459       0.00000000
Si       2.03621742       1.08160713       0.34962176       0.00000000
Si       1.03120587      -2.20032288       0.39374013       0.00000000
Si      -1.29482694       0.29755314      -2.08610966       0.00000000
Si       2.14052229      -1.82658141      -1.68928433       0.00000000
Si       0.73578672      -0.62701839      -3.37370091       0.00000000
Si      -0.95635332      -3.26489067       0.97283224       0.00000000
Si       3.63716508      -0.38806038      -0.44752546       0.00000000
Si      -2.78324424      -1.64530629      -1.92399952       0.00000000
Si      -1.21143843      -2.03998041       3.05068043       0.00000000
