10
Lattice="16.28999089631971 0.0 0.0 0.0 16.28999089631971 0.0 0.0 0.0 34.279985188174585" Properties=species:S:1:pos:R:3:initial_magmoms:R:1 pbc="T T T"
Si       0.67142493      -2.20343427       0.39048353       0.00000000
Si      -1.72773369      -0.18119367       1.65922077       0.00000000
Si       1.34890974       1.77347601       1.08077998       0.00000000
Si      -0.53230833      -0.08332335      -2.44409575       0.00000000
Si       0.80009964       3.49303212      -0.32164928       0.00000000
Si       1.57566654       0.66529989      -3.24083161       0.00000000
Si       2.49596099      -2.68589520      -0.98555012       0.00000000
Si      -2.82533760      -2.23728489       1.22002535       0.00000000
Si      -1.14679971      -3.64521330       0.23234987       0.00000000
Si      -3.15775134       2.16339345      -0.69297029       0.00000000
