10
Lattice="16.28999089631971 0.0 0.0 0.0 16.28999089631971 0.0 0.0 0.0 34.279985188174585" Properties=species:S:1:pos:R:3:initial_magmoms:R:1 pbc="T T T"
Si       0.25917390       0.15765462       2.35925274       0.00000000
Si      -2.22371532       0.94872960       0.00555336       0.00000000
Si       1.33266861       1.96072956      -0.53483663       0.00000000
Si      -0.39415284      -1.77870510      -1.74653194       0.00000000
Si       2.73059496       0.64702251      -1.86400952       0.00000000
Si      -1.44269127       3.00514662       0.92734268       0.00000000
Si      -3.03316542      -0.42375177       1.65592989       0.00000000
Si       0.42503868       2.51149446       2.40299402       0.00000000
Si       1.28513439      -0.73171422      -3.30760906       0.00000000
Si       0.08236224       3.30502923      -2.14044347       0.00000000
