10
Lattice="16.28999089631971 0.0 0.0 0.0 16.28999089631971 0.0 0.0 0.0 34.279985188174585" Properties=species:S:1:pos:R:3:initial_magmoms:R:1 pbc="T T T"
Si       1.24815609      -1.32973641      -1.52216931       0.00000000
Si       1.44546057       1.37873673       1.44359954       0.00000000
Si      -1.67928723      -1.04699088       1.56107712       0.00000000
Si      -1.47549933       1.39036779      -1.52518595       0.00000000
Si      -1.28513439       0.73171422       3.30760906       0.00000000
Si       2.67182441      -2.70923877       0.04932893       0.00000000
Si       2.59429956       2.80973178      -0.08179209       0.00000000
Si       0.04753422       2.69244378       2.77277243       0.00000000
Si       2.58040400       0.05250267      -2.90704721       0.00000000
Si      -2.87795430      -2.61793332      -0.08278621       0.00000000
