10
Lattice="16.28999089631971 0.0 0.0 0.0 16.28999089631971 0.0 0.0 0.0 34.279985188174585" Properties=species:S:1:pos:R:3:initial_magmoms:R:1 pbc="T T T"
Si       1.64788893       1.19897658      -1.11292845       0.00000000
Si      -1.27171143       1.41861441       1.33563124       0.00000000
Si       1.44260313      -1.31553153       1.33334819       0.00000000
Si      -1.54987947      -1.10907207      -1.48460669       0.00000000
Si      -2.60112204       2.61765380      -0.23671029       0.00000000
Si      -2.62905939       0.04901661       2.69448376       0.00000000
Si       0.09023031      -2.66822055       2.69273548       0.00000000
Si      -2.65988007      -2.71280628      -0.02649159       0.00000000
Si      -0.09361863      -2.09396547      -3.20779395       0.00000000
Si      -3.36689865       0.75435732      -1.67897432       0.00000000
