10
Lattice="16.28999089631971 0.0 0.0 0.0 16.28999089631971 0.0 0.0 0.0 34.279985188174585" Properties=species:S:1:pos:R:3:initial_magmoms:R:1 pbc="T T T"
Si       1.35681039       1.35658396       1.35800237       0.00000000
Si       1.35782037      -1.35739587      -1.35645977       0.00000000
Si      -1.35768842      -1.35669540       1.35738533       0.00000000
Si      -1.35761674       1.35778779      -1.35673401       0.00000000
Si       2.71423980       0.00110866      -2.71298810       0.00000000
Si      -0.00102627      -2.71415739      -2.71350230       0.00000000
Si       0.00114030       2.71323797      -2.71442786       0.00000000
Si      -2.71452381      -0.00062476      -2.71353658       0.00000000
Si      -2.71311019      -0.00403896       2.71603902       0.00000000
Si      -2.71463388      -2.71498818       0.00051420       0.00000000
