10
Lattice="16.28999089631971 0.0 0.0 0.0 16.28999089631971 0.0 0.0 0.0 34.279985188174585" Properties=species:S:1:pos:R:3:initial_magmoms:R:1 pbc="T T T"
Si      -0.95596236      -0.70765389       2.03712354       0.00000000
Si      -0.27675081       2.34204588       0.10143453       0.00000000
Si      -1.15624791      -0.31009644      -2.06389622       0.00000000
Si       1.56268341      -1.26286596      -1.37894745       0.00000000
Si       2.44208277       0.57151836      -0.02039660       0.00000000
Si       1.86569370       2.59631358       1.12808638       0.00000000
Si      -2.99381464       0.48435057       2.24825409       0.00000000
Si       0.62556858      -1.30592043      -3.51205501       0.00000000
Si      -2.52594043      -2.34862704      -1.70172798       0.00000000
Si      -1.16712963      -3.03466410       2.10578639       0.00000000
