10
Lattice="10.86 0.0 0.0 0.0 10.86 0.0 0.0 0.0 10.86" Properties=species:S:1:pos:R:3:initial_magmoms:R:1 pbc="T T T"
Si       1.04965158       1.51378626       1.14340596       0.00000000
Si       1.04965158      -1.20121374      -1.57159404       0.00000000
Si      -1.66534842      -1.20121374       1.14340596       0.00000000
Si       2.40715158       0.15628626       2.50090596       0.00000000
Si       2.40715158      -2.55871374      -0.21409404       0.00000000
Si      -0.30784842      -2.55871374       2.50090596       0.00000000
Si       2.40715158       2.87128626      -0.21409404       0.00000000
Si       2.40715158       0.15628626      -2.92909404       0.00000000
Si      -0.46751214       2.70556266      -2.73191988       0.00000000
Si      -0.30784842      -2.55871374      -2.92909404       0.00000000
