10
Lattice="10.86 0.0 0.0 0.0 10.86 0.0 0.0 0.0 10.86" Properties=species:S:1:pos:R:3:initial_magmoms:R:1 pbc="T T T"
Si      -0.96481326      -2.07227262      -0.30147360       0.00000000
Si      -0.98526264       0.42176982       2.11089078       0.00000000
Si       0.53548488       1.65022044      -1.74070596       0.00000000
Si      -2.15052978       1.82685834       0.88641492       0.00000000
Si      -2.15052978      -0.88814166      -1.82858508       0.00000000
Si      -0.71389296       0.27547476      -3.00740550       0.00000000
Si      -0.87174306       3.20309184      -0.32048946       0.00000000
Si       1.71155772      -2.11389900       2.13118812       0.00000000
Si      -3.50802978       0.46935834      -0.47108508       0.00000000
Si       0.56447022       1.82685834       3.60141492       0.00000000
