10
Lattice="10.86 0.0 0.0 0.0 10.86 0.0 0.0 0.0 10.86" Properties=species:S:1:pos:R:3:initial_magmoms:R:1 pbc="T T T"
Si       1.05184530       1.45698846       1.06013148       0.00000000
Si       1.05184530      -1.25801154      -1.65486852       0.00000000
Si      -1.66315470      -1.25801154       1.06013148       0.00000000
Si       2.40934530       0.09948846       2.41763148       0.00000000
Si       2.40934530      -2.61551154      -0.29736852       0.00000000
Si      -0.30565470      -2.61551154       2.41763148       0.00000000
Si       2.40934530       2.81448846      -0.29736852       0.00000000
Si      -0.30565470       2.81448846       2.41763148       0.00000000
Si       2.40934530       0.09948846      -3.01236852       0.00000000
Si      -3.02065470       0.09948846       2.41763148       0.00000000
