10
Lattice="10.86 0.0 0.0 0.0 10.86 0.0 0.0 0.0 10.86" Properties=species:S:1:pos:R:3:initial_magmoms:R:1 pbc="T T T"
Si      -1.51072374      -1.66306782       0.96568206       0.00000000
Si       1.70267424       1.07453184       1.54560606       0.00000000
Si      -1.51072374       1.05193218      -1.74931794       0.00000000
Si       1.20427626      -1.66306782      -1.74931794       0.00000000
Si       0.13008108       2.30232000       2.43413868       0.00000000
Si       2.48508294       2.24288322      -0.31167114       0.00000000
Si       1.37925258      -1.07869122       3.24962694       0.00000000
Si      -2.86822374      -0.30556782       2.32318206       0.00000000
Si      -2.86822374       2.40943218      -0.39181794       0.00000000
Si      -0.25527516      -3.01597404       2.27622342       0.00000000
