10
Lattice="10.86 0.0 0.0 0.0 10.86 0.0 0.0 0.0 10.86" Properties=species:S:1:pos:R:3:initial_magmoms:R:1 pbc="T T T"
Si      -1.57259316       1.22778816       0.88853262       0.00000000
Si       0.78240870       1.16835138      -1.85727720       0.00000000
Si      -1.70267424      -1.07453184      -1.54560606       0.00000000
Si      -0.32342166      -2.15322306       1.70402088       0.00000000
Si      -0.49839798       2.69240034       2.13507600       0.00000000
Si       2.21660202       2.69240034      -0.57992400       0.00000000
Si       3.45936612       1.42865472       0.67836990       0.00000000
Si      -3.21339798      -0.02259966       2.13507600       0.00000000
Si       2.21660202      -0.02259966      -3.29492400       0.00000000
Si       0.89042226       1.46504658       3.64309560       0.00000000
