10
Lattice="10.86 0.0 0.0 0.0 10.86 0.0 0.0 0.0 10.86" Properties=species:S:1:pos:R:3:initial_magmoms:R:1 pbc="T T T"
Si      -1.43727756      -1.14460056       1.11785238       0.00000000
Si       1.27772244       1.57039944       1.11785238       0.00000000
Si       1.45269876      -0.56022396      -2.02820274       0.00000000
Si      -1.43727756       1.57039944      -1.59714762       0.00000000
Si       2.32303002      -2.17896126      -0.33209880       0.00000000
Si      -0.07977756      -2.50210056       2.47535238       0.00000000
Si       2.63522244       0.21289944       2.47535238       0.00000000
Si      -2.79477756       0.21289944       2.47535238       0.00000000
Si      -2.79477756      -2.50210056      -0.23964762       0.00000000
Si      -0.07977756       2.92789944       2.47535238       0.00000000
