10
Lattice="16.28999089631971 0.0 0.0 0.0 16.28999089631971 0.0 0.0 0.0 34.281931910070035" Properties=species:S:1:pos:R:3:initial_magmoms:R:1 pbc="T T T"
Si      -1.35708732       1.36029645       1.36044495       0.00000000
Si       1.36068741      -1.35448092       1.36308466       0.00000000
Si      -1.35003375      -1.34967537      -1.38890239       0.00000000
Si       1.36956546       1.36756179      -1.38799392       0.00000000
Si      -2.56857462       0.19588725      -2.80830887       0.00000000
Si      -2.71358820      -2.71080587      -0.00017141       0.00000000
Si       2.71477737      -2.71199830       0.01001033       0.00000000
Si       0.00086337      -2.71105510       2.71921008       0.00000000
Si       2.71277370       2.71762812      -0.00020569       0.00000000
Si      -2.71345788       0.00335574       2.71873013       0.00000000
