10
Lattice="16.28999089631971 0.0 0.0 0.0 16.28999089631971 0.0 0.0 0.0 34.281931910070035" Properties=species:S:1:pos:R:3:initial_magmoms:R:1 pbc="T T T"
Si       1.27342188      -1.36521507       1.51083987       0.00000000
Si      -0.89621064      -1.88752134      -1.23580061       0.00000000
Si       1.30717476       1.45599205      -1.47217466       0.00000000
Si      -1.43930295       1.34261365       1.48588946       0.00000000
Si       2.58007536      -2.76729537       0.11883153       0.00000000
Si       2.69610903       2.70683599       0.06160809       0.00000000
Si      -2.74934475      -2.70606126       0.05066530       0.00000000
Si       2.93306337       0.08178069      -2.55390735       0.00000000
Si       2.62550817      -0.01970927       2.88480219       0.00000000
Si      -2.65784382       2.88817628       0.06648299       0.00000000
