10
Lattice="16.28999089631971 0.0 0.0 0.0 16.28999089631971 0.0 0.0 0.0 34.281931910070035" Properties=species:S:1:pos:R:3:initial_magmoms:R:1 pbc="T T T"
Si       1.35741312      -1.35723538      -1.35663965       0.00000000
Si      -1.35783666      -1.35560638       1.35790808       0.00000000
Si      -1.35769005       1.35807860      -1.35674250       0.00000000
Si       1.35827649       1.35719568       1.35835375       0.00000000
Si      -2.71303434       0.00015626      -2.71434204       0.00000000
Si       0.00213399       2.71465279      -2.71286792       0.00000000
Si       0.00154755      -2.71331272      -2.71509624       0.00000000
Si       2.71523349       0.00169483      -2.71327930       0.00000000
Si      -2.71466334       2.71499488       0.00034282       0.00000000
Si      -2.71461447      -2.71505575       0.00013713       0.00000000
