10
Lattice="16.28999089631971 0.0 0.0 0.0 16.28999089631971 0.0 0.0 0.0 34.281931910070035" Properties=species:S:1:pos:R:3:initial_magmoms:R:1 pbc="T T T"
Si       1.35697329      -1.35691628      -1.35708532       0.00000000
Si      -1.35654975      -1.35731212       1.35780524       0.00000000
Si      -1.35734796       1.35749457      -1.35756526       0.00000000
Si       1.35853713       1.35855342       1.35698247       0.00000000
Si       2.70861975       0.00280188       2.71701603       0.00000000
Si      -0.00185706      -2.71395443       2.71516481       0.00000000
Si       0.00162900      -2.71483862      -2.71468486       0.00000000
Si       2.71466334      -2.71499488      -0.00034282       0.00000000
Si       2.71425609       2.71562445       0.00023997       0.00000000
Si       2.71679733      -0.00034209      -2.71321074       0.00000000
