10
Lattice="16.28999089631971 0.0 0.0 0.0 16.28999089631971 0.0 0.0 0.0 34.281931910070035" Properties=species:S:1:pos:R:3:initial_magmoms:R:1 pbc="T T T"
Si      -1.71703116      -1.07891928       1.24738307       0.00000000
Si       1.25485128      -1.41354846      -1.49469307       0.00000000
Si      -1.44922356       1.29774285      -1.47364395       0.00000000
Si       1.97754084       0.85304214       1.37223794       0.00000000
Si       2.81325042      -2.56343024      -0.17051842       0.00000000
Si      -2.72038113      -2.66070500      -0.20750865       0.00000000
Si       2.68345170       2.73395070       0.03777871       0.00000000
Si      -0.50047767      -2.58685363       2.83570015       0.00000000
Si       2.60726337      -0.06139701      -2.86072597       0.00000000
Si      -0.45287829      -0.33963021       3.83495046       0.00000000
