10
Lattice="16.28999089631971 0.0 0.0 0.0 16.28999089631971 0.0 0.0 0.0 34.281931910070035" Properties=species:S:1:pos:R:3:initial_magmoms:R:1 pbc="T T T"
Si      -1.77601725       0.39053646      -1.55334948       0.00000000
Si      -0.91556316       1.43211906       1.68958596       0.00000000
Si       1.09483461      -2.13182343       0.45022486       0.00000000
Si      -3.05158941       0.97836111       0.73455937       0.00000000
Si      -0.17653473       1.68906123      -3.02253678       0.00000000
Si       1.54904868       2.71130760      -1.64052849       0.00000000
Si       0.12318498       0.41834349       3.55085593       0.00000000
Si       1.92520107      -2.87357229      -1.65029884       0.00000000
Si       3.44417841       1.08295920      -1.64858474       0.00000000
Si       3.03285591      -1.78882119       2.00926515       0.00000000
