10
Lattice="16.28999089631971 0.0 0.0 0.0 16.28999089631971 0.0 0.0 0.0 34.281931910070035" Properties=species:S:1:pos:R:3:initial_magmoms:R:1 pbc="T T T"
Si      -0.98453502       0.38090907      -2.06085949       0.00000000
Si      -0.81899604       1.17967293       1.82983342       0.00000000
Si       2.17370502       0.63734625      -0.69770627       0.00000000
Si      -0.64518174      -2.07021465       0.97161906       0.00000000
Si       0.48161385      -1.11488760      -3.27536617       0.00000000
Si       0.47739474       0.20608479       3.51009469       0.00000000
Si       3.40107507      -0.03116277       1.13219572       0.00000000
Si      -3.20956820      -0.20717622      -1.62678142       0.00000000
Si      -0.53926416       3.43837917       1.37696885       0.00000000
Si      -1.05239916      -3.54975390      -0.72616029       0.00000000
