10
Lattice="16.28999089631971 0.0 0.0 0.0 16.28999089631971 0.0 0.0 0.0 34.281931910070035" Properties=species:S:1:pos:R:3:initial_magmoms:R:1 pbc="T T T"
Si      -2.33311896      -0.18036288       0.44751659       0.00000000
Si       0.41614434      -1.10196963      -2.08965633       0.00000000
Si       0.35943885       2.37788388      -0.37381039       0.00000000
Si       0.87967629      -1.29456630       1.91375564       0.00000000
Si       2.20050207      -2.64029949       0.37645010       0.00000000
Si       2.54405817      -0.30366189      -2.53405326       0.00000000
Si       0.33249519      -3.36414564      -1.39596105       0.00000000
Si      -1.70714313       3.35243313      -0.00689067       0.00000000
Si      -2.63114451       1.73721447       2.08434262       0.00000000
Si      -0.88024644      -0.12838149      -3.76991760       0.00000000
