10
Lattice="16.28999089631971 0.0 0.0 0.0 16.28999089631971 0.0 0.0 0.0 34.281931910070035" Properties=species:S:1:pos:R:3:initial_magmoms:R:1 pbc="T T T"
Si      -1.35920502      -1.34899119       1.39380814       0.00000000
Si       1.35480672       1.36436895       1.38911151       0.00000000
Si      -1.51443243       1.33068123      -1.34160701       0.00000000
Si       1.52005248      -1.23880563      -1.52390815       0.00000000
Si      -2.70858717      -2.70317889       0.02487498       0.00000000
Si       2.72508894      -2.70234810       0.00348305       0.00000000
Si      -2.72300382       2.71709055       0.06307536       0.00000000
Si       2.73921237       2.71570590       0.01915333       0.00000000
Si      -0.00156384      -2.70961344       2.75192191       0.00000000
Si      -2.71562445       0.00764001       2.75281325       0.00000000
