10
Lattice="16.28999089631971 0.0 0.0 0.0 16.28999089631971 0.0 0.0 0.0 34.281931910070035" Properties=species:S:1:pos:R:3:initial_magmoms:R:1 pbc="T T T"
Si      -1.91151747      -0.20665494       1.28262492       0.00000000
Si       1.70869068       0.40495311       1.62009644       0.00000000
Si      -0.74064114       2.08282311      -0.93044643       0.00000000
Si       0.50065686      -1.36249560      -2.26901950       0.00000000
Si      -1.96395498      -2.64168414       1.06109495       0.00000000
Si       2.65083912      -1.81480374       1.92290892       0.00000000
Si       3.39048657       1.56787992       0.37010794       0.00000000
Si       1.36423863       3.46369383      -1.27381446       0.00000000
Si      -3.22867800       1.88416656       1.23106486       0.00000000
Si       1.55396826       0.33769170      -3.60532995       0.00000000
