10
Lattice="16.28999089631971 0.0 0.0 0.0 16.28999089631971 0.0 0.0 0.0 34.281931910070035" Properties=species:S:1:pos:R:3:initial_magmoms:R:1 pbc="T T T"
Si       0.94941378       2.04910281       0.54813412       0.00000000
Si       0.80467713      -1.97245836       0.99071410       0.00000000
Si       0.07082892      -0.17959725      -2.34961636       0.00000000
Si      -2.28703455       0.34640685       0.52153132       0.00000000
Si      -1.24633161       1.91122425      -2.40117642       0.00000000
Si      -3.08574791       0.75590487      -1.63963716       0.00000000
Si      -2.73722499      -1.57973904       1.75897263       0.00000000
Si      -0.72891234      -2.27540349       2.73792802       0.00000000
Si       0.09404217       3.43271025      -1.19914837       0.00000000
Si       3.18932136       1.77697836      -0.11001078       0.00000000
