10
Lattice="16.28999089631971 0.0 0.0 0.0 16.28999089631971 0.0 0.0 0.0 34.281931910070035" Properties=species:S:1:pos:R:3:initial_magmoms:R:1 pbc="T T T"
Si       1.32563133       1.03263939       1.54731586       0.00000000
Si      -2.08507113       0.96456348       0.36451999       0.00000000
Si       0.62724645       0.27816804      -2.23264635       0.00000000
Si      -0.05045013      -2.32935597       0.49708829       0.00000000
Si      -3.01876506      -0.30555153      -1.44992084       0.00000000
Si      -1.48517559      -0.00260640      -3.19713476       0.00000000
Si       1.64742399      -1.79768295      -2.82935799       0.00000000
Si       0.49845771      -3.41894520      -1.54676735       0.00000000
Si       0.64236357       0.36957123       3.71976310       0.00000000
Si      -2.76341931       0.47167695       2.57176341       0.00000000
