10
Lattice="16.28999089631971 0.0 0.0 0.0 16.28999089631971 0.0 0.0 0.0 34.281931910070035" Properties=species:S:1:pos:R:3:initial_magmoms:R:1 pbc="T T T"
Si      -2.06658198       0.97454925       0.36691972       0.00000000
Si       0.41992362       0.77134779      -2.18955393       0.00000000
Si       1.62992853       1.02874608       1.36301609       0.00000000
Si      -0.35943885      -2.37788388       0.37381039       0.00000000
Si      -0.05339862       1.88550234       2.88685983       0.00000000
Si       2.44582947      -0.34966485      -2.70097208       0.00000000
Si      -3.53602795       0.27285750      -1.34405817       0.00000000
Si      -2.69255781      -2.55824676       0.82132698       0.00000000
Si      -1.81851786       3.36463434       0.42132518       0.00000000
Si       0.44608536       3.15162630      -2.21571106       0.00000000
