10
Lattice="16.28999089631971 0.0 0.0 0.0 16.28999089631971 0.0 0.0 0.0 34.281931910070035" Properties=species:S:1:pos:R:3:initial_magmoms:R:1 pbc="T T T"
Si      -0.83903274      -1.68541227       1.36534418       0.00000000
Si      -0.10252926      -1.30595301      -1.96933803       0.00000000
Si       1.82084733       0.95166180       1.24152463       0.00000000
Si      -1.65543867       1.83143583      -0.11310751       0.00000000
Si      -2.21426712      -0.35649036       2.65213435       0.00000000
Si       0.51419385       2.35374210       2.63353297       0.00000000
Si      -2.07606276      -0.20395080      -2.92007938       0.00000000
Si      -2.55187737      -2.76043824       0.14830338       0.00000000
Si       1.94048109      -0.55930086      -3.20204843       0.00000000
Si      -3.50857278       1.01289591       1.17335840       0.00000000
