10
Lattice="16.28999089631971 0.0 0.0 0.0 16.28999089631971 0.0 0.0 0.0 34.281931910070035" Properties=species:S:1:pos:R:3:initial_magmoms:R:1 pbc="T T T"
Si       0.80176122      -1.30381902       1.81066981       0.00000000
Si       1.10848563       2.09824064      -0.34305948       0.00000000
Si      -2.16837819       0.70293861       0.74981483       0.00000000
Si       0.74142306      -1.52474400      -1.70398438       0.00000000
Si       2.98737423      -1.60564014      -1.04361115       0.00000000
Si       0.42862248       0.10303425       3.68009888       0.00000000
Si       0.06576273       2.81255714      -2.45434772       0.00000000
Si       3.07138176      -1.75283658       1.29681765       0.00000000
Si       0.92450637       3.41083997       1.72013118       0.00000000
Si      -0.08410527      -3.74727015      -1.29462360       0.00000000
