10
Lattice="16.28999089631971 0.0 0.0 0.0 16.28999089631971 0.0 0.0 0.0 34.281931910070035" Properties=species:S:1:pos:R:3:initial_magmoms:R:1 pbc="T T T"
Si       0.70196868       0.59649093      -2.10021517       0.00000000
Si      -0.02616174      -2.38027851       0.02615713       0.00000000
Si      -2.06127144       1.13787279       0.39856196       0.00000000
Si      -0.02366937       1.29036348       2.03418813       0.00000000
Si      -2.26460322       0.21300804       2.63703624       0.00000000
Si       1.94986413       0.18836127       2.98492948       0.00000000
Si       1.68160041       2.77853643      -1.61752530       0.00000000
Si      -1.32199866       3.35078784       0.69228972       0.00000000
Si      -0.94169232      -0.51665364      -3.61036939       0.00000000
Si       2.57978214      -0.49943511      -2.83642007       0.00000000
