10
Lattice="16.28999089631971 0.0 0.0 0.0 16.28999089631971 0.0 0.0 0.0 34.281931910070035" Properties=species:S:1:pos:R:3:initial_magmoms:R:1 pbc="T T T"
Si      -1.35900954       1.35544058      -1.35266294       0.00000000
Si       1.35744570       1.35635282       1.35622827       0.00000000
Si      -1.35782037      -1.35893021       1.35663965       0.00000000
Si       1.35622395      -1.35787136      -1.36150769       0.00000000
Si      -0.00669519       2.69640732      -2.72813024       0.00000000
Si      -2.71309950       2.71295796       0.00041138       0.00000000
Si       0.00026064       2.71321860       2.71317645       0.00000000
Si       2.71415835       2.71316973      -0.00109702       0.00000000
Si      -2.71523349      -0.00169483       2.71327930       0.00000000
Si       2.71479366      -0.00208019       2.71379353       0.00000000
