10
Lattice="16.28999089631971 0.0 0.0 0.0 16.28999089631971 0.0 0.0 0.0 34.281931910070035" Properties=species:S:1:pos:R:3:initial_magmoms:R:1 pbc="T T T"
Si       1.77762996       0.91777860       1.21903190       0.00000000
Si      -1.32525666       1.34348517      -1.45190919       0.00000000
Si      -1.63867626      -0.94395663       1.52691810       0.00000000
Si       1.37946978      -1.40477792      -1.43593380       0.00000000
Si      -2.48471370      -2.53765946      -0.14209869       0.00000000
Si      -3.32042328       0.87881292       1.40065767       0.00000000
Si       2.72795598       2.59343316      -0.13585937       0.00000000
Si      -2.61451242       2.75972148       0.06619845       0.00000000
Si       2.74556547      -2.70616208       0.23322011       0.00000000
Si       0.02823057       2.67530670      -2.83196341       0.00000000
