10
Lattice="16.28999089631971 0.0 0.0 0.0 16.28999089631971 0.0 0.0 0.0 34.281931910070035" Properties=species:S:1:pos:R:3:initial_magmoms:R:1 pbc="T T T"
Si      -0.65275659      -1.85487714       1.27631704       0.00000000
Si      -1.20225087       0.23824125      -2.00494563       0.00000000
Si       2.05175808      -0.66420846      -0.98310351       0.00000000
Si       0.37828638       1.95727608       1.33048252       0.00000000
Si       3.31353261      -1.19037546       0.92739534       0.00000000
Si      -1.38429162      -2.01443769      -2.72496944       0.00000000
Si       0.33547626       1.18095984      -3.54766771       0.00000000
Si      -3.02809923      -1.77780915       1.36798698       0.00000000
Si       0.36466794      -3.75907130       0.35067008       0.00000000
Si       2.51890641       0.86675832      -2.71972431       0.00000000
