10
Lattice="16.28999089631971 0.0 0.0 0.0 16.28999089631971 0.0 0.0 0.0 34.281931910070035" Properties=species:S:1:pos:R:3:initial_magmoms:R:1 pbc="T T T"
Si      -0.13660794      -1.65238429       1.62846124       0.00000000
Si       1.53792261      -0.68497821      -1.63367210       0.00000000
Si      -1.82845476       0.44227350      -1.40645132       0.00000000
Si       0.82406223       2.04789735       0.86318525       0.00000000
Si      -1.42487001       2.77063578      -1.49205336       0.00000000
Si       0.87770520       3.18127410      -1.29414365       0.00000000
Si       3.65283702      -0.88493796      -0.55303643       0.00000000
Si      -3.79620531      -0.32482260      -0.42297071       0.00000000
Si      -0.89119332       3.02562315       2.21142582       0.00000000
Si      -0.47482092      -3.78852362       0.56074987       0.00000000
