10
Lattice="16.28999089631971 0.0 0.0 0.0 16.28999089631971 0.0 0.0 0.0 34.281931910070035" Properties=species:S:1:pos:R:3:initial_magmoms:R:1 pbc="T T T"
Si       1.62588861      -1.37421137      -1.08173268       0.00000000
Si       1.38893427       1.25084394       1.53378276       0.00000000
Si      -1.30717476      -1.45599205       1.47217466       0.00000000
Si      -1.20536226       1.45091772      -1.63881439       0.00000000
Si      -2.52618804       2.79665091      -0.10150886       0.00000000
Si       3.22509420       2.09632752       0.21302804       0.00000000
Si      -0.02687850       2.60385876       2.95897260       0.00000000
Si       1.22222241      -1.67102005      -3.36230520       0.00000000
Si       2.67064776      -0.13473459       2.98150955       0.00000000
Si      -2.20338540      -3.34351340       0.23637405       0.00000000
