10
Lattice="16.28999089631971 0.0 0.0 0.0 16.28999089631971 0.0 0.0 0.0 34.281931910070035" Properties=species:S:1:pos:R:3:initial_magmoms:R:1 pbc="T T T"
Si       0.17785422       2.28687817      -0.48217564       0.00000000
Si      -2.28356967      -0.37852584      -0.49626552       0.00000000
Si       1.64017494      -1.21213957      -1.22403706       0.00000000
Si       0.11430693       2.20744813       3.00549218       0.00000000
Si      -2.49691524      -0.11882578      -2.84145951       0.00000000
Si       2.48914458       2.83340767      -0.72276637       0.00000000
Si      -0.72369954       3.56056069       1.28166502       0.00000000
Si       0.90090216      -3.42505462      -1.51776482       0.00000000
Si      -3.62682908       0.91807834       0.97360741       0.00000000
Si      -2.79017468      -0.50486945       2.75201790       0.00000000
