10
Lattice="16.28999089631971 0.0 0.0 0.0 16.28999089631971 0.0 0.0 0.0 34.281931910070035" Properties=species:S:1:pos:R:3:initial_magmoms:R:1 pbc="T T T"
Si      -1.14896628      -1.62126225       1.28259064       0.00000000
Si      -0.46413468      -0.04390155      -2.33741199       0.00000000
Si       2.14920486      -0.33256035       0.97552720       0.00000000
Si      -1.02017754       2.07585099       0.59671164       0.00000000
Si      -2.88013716       0.13913289      -2.06836724       0.00000000
Si      -3.13259958       1.79507655      -0.36777677       0.00000000
Si       2.60889237       1.80950949       1.81780046       0.00000000
Si       0.69590880       1.97978886      -3.06782324       0.00000000
Si      -1.64742399       1.79768295       2.82935799       0.00000000
Si      -1.69787412      -0.53167302       3.32644628       0.00000000
