10
Lattice="16.28999089631971 0.0 0.0 0.0 16.28999089631971 0.0 0.0 0.0 34.281931910070035" Properties=species:S:1:pos:R:3:initial_magmoms:R:1 pbc="T T T"
Si      -1.35677781       1.35791811      -1.35753098       0.00000000
Si       1.35819504       1.35785295       1.35657109       0.00000000
Si      -1.35609363      -1.35829278       1.35886798       0.00000000
Si       1.35856971      -1.35744570      -1.35746242       0.00000000
Si      -2.71376739       0.00089595      -2.71386209       0.00000000
Si      -2.71494027      -2.71419093       0.00023997       0.00000000
Si      -2.71419093       2.71498914       0.00075420       0.00000000
Si       0.00102627      -2.71555929      -2.71465058       0.00000000
Si      -2.71194291      -0.00091224       2.71842159       0.00000000
Si      -0.00169416       2.71282257       2.71763311       0.00000000
