10
Lattice="16.28999089631971 0.0 0.0 0.0 16.28999089631971 0.0 0.0 0.0 34.281931910070035" Properties=species:S:1:pos:R:3:initial_magmoms:R:1 pbc="T T T"
Si      -0.50171571       1.34496756       1.90213406       0.00000000
Si      -1.70869068      -0.40495311      -1.62009644       0.00000000
Si       1.68179589       1.16292681      -1.24998850       0.00000000
Si       0.94214844      -2.21975685       0.30281247       0.00000000
Si       3.12277671      -0.65091582      -1.78704955       0.00000000
Si      -3.62020815      -0.61160805      -0.33747153       0.00000000
Si       0.19158669       0.04803921       3.72624239       0.00000000
Si       2.86791966      -1.76111190       1.65698382       0.00000000
Si       0.32381262       3.56749371       1.49277328       0.00000000
Si       1.98948141      -2.80258047      -1.83528425       0.00000000
