10
Lattice="16.28999089631971 0.0 0.0 0.0 16.28999089631971 0.0 0.0 0.0 34.281931910070035" Properties=species:S:1:pos:R:3:initial_magmoms:R:1 pbc="T T T"
Si      -1.44098082       1.81384263       0.53706105       0.00000000
Si      -1.13329530      -2.15166465      -0.04823471       0.00000000
Si       0.83404800      -0.64159794      -2.19404487       0.00000000
Si       1.01294478       0.40273767       2.18763414       0.00000000
Si      -2.18062827      -1.56884103       2.08986202       0.00000000
Si      -1.93627827       2.08407744      -1.89198660       0.00000000
Si       0.92908386      -3.21444054      -0.89698725       0.00000000
Si       0.22898853       2.60249040       2.33110411       0.00000000
Si      -0.25485705      -1.11019608       3.44403337       0.00000000
Si      -3.12277671       0.65091582       1.78704955       0.00000000
