10
Lattice="16.28999089631971 0.0 0.0 0.0 16.28999089631971 0.0 0.0 0.0 34.281931910070035" Properties=species:S:1:pos:R:3:initial_magmoms:R:1 pbc="T T T"
Si       2.22273792      -0.68331663      -0.01755236       0.00000000
Si      -0.69330240       1.29692835      -1.82410833       0.00000000
Si      -0.70925031       1.57835439       1.61659968       0.00000000
Si      -0.96552459      -2.17173393       0.24110496       0.00000000
Si      -2.93320998       1.56905280      -1.16596344       0.00000000
Si       3.28640976       1.10791548       1.06335756       0.00000000
Si      -0.19158669      -0.04803921      -3.72624239       0.00000000
Si      -3.00863268       2.02145868       1.18639548       0.00000000
Si      -1.59277104      -2.44990197       2.47375131       0.00000000
Si       2.67633297      -1.80915111      -2.06925857       0.00000000
