10
Lattice="16.28999089631971 0.0 0.0 0.0 16.28999089631971 0.0 0.0 0.0 34.281931910070035" Properties=species:S:1:pos:R:3:initial_magmoms:R:1 pbc="T T T"
Si       2.27592477      -0.26292060      -0.47898742       0.00000000
Si      -1.06367184      -1.79123211      -1.08090992       0.00000000
Si      -0.82422513       2.18344644      -0.29602465       0.00000000
Si      -0.21468591      -0.70832178       2.26936231       0.00000000
Si       3.15462366       0.72637110       1.46812455       0.00000000
Si      -0.62286444      -3.54599091       0.39883622       0.00000000
Si      -3.28640976      -1.10791548      -1.06335756       0.00000000
Si      -0.90823266       2.33064288      -2.63645345       0.00000000
Si       2.00606463      -0.61608780       2.98393530       0.00000000
Si       2.89670409      -2.54063727      -0.60387657       0.00000000
