10
Lattice="16.28999089631971 0.0 0.0 0.0 16.28999089631971 0.0 0.0 0.0 34.281931910070035" Properties=species:S:1:pos:R:3:initial_magmoms:R:1 pbc="T T T"
Si      -0.64391112       0.72628965       2.11670479       0.00000000
Si      -0.44080740       1.75475880      -1.47974614       0.00000000
Si       2.26266471      -0.16444755       0.56373240       0.00000000
Si      -0.45968751      -2.14206984      -0.84227326       0.00000000
Si       0.07809426      -3.11771052       1.29949164       0.00000000
Si       0.40817853       2.83766913       1.87052610       0.00000000
Si       2.32266078      -2.46728340       1.06068357       0.00000000
Si       0.01278765       0.62892432      -3.53145234       0.00000000
Si       0.62286444       3.54599091      -0.39883622       0.00000000
Si      -2.60889237      -1.80950949      -1.81780046       0.00000000
