10
Lattice="16.28999089631971 0.0 0.0 0.0 16.28999089631971 0.0 0.0 0.0 34.281931910070035" Properties=species:S:1:pos:R:3:initial_magmoms:R:1 pbc="T T T"
Si      -1.35586557      -1.35607734      -1.35845659       0.00000000
Si      -1.35741312       1.35723538       1.35663965       0.00000000
Si       1.35798327      -1.35782037       1.35725672       0.00000000
Si       1.35782037       1.35893021      -1.35663965       0.00000000
Si      -0.00118917       2.71437079      -2.70930259       0.00000000
Si       0.00364896      -2.71306692       2.71444489       0.00000000
Si       0.00086337       2.71443106       2.71499340       0.00000000
Si      -2.71500543      -2.71464705      -0.00047995       0.00000000
Si      -2.71524978       0.00162900       2.71454773       0.00000000
Si       2.71577106       0.00079821       2.71434204       0.00000000
