10
Lattice="16.28999089631971 0.0 0.0 0.0 16.28999089631971 0.0 0.0 0.0 34.281931910070035" Properties=species:S:1:pos:R:3:initial_magmoms:R:1 pbc="T T T"
Si      -1.53095049       1.62557910       0.78512524       0.00000000
Si       1.43863506       1.19540907      -1.47950616       0.00000000
Si       0.49529745      -0.27023481       2.42904764       0.00000000
Si      -1.34122086      -1.50042303      -1.54639025       0.00000000
Si       1.93627827      -2.08407744       1.89198660       0.00000000
Si       2.76047082       2.52260424       0.11151919       0.00000000
Si      -3.63583026       0.24470838       1.12849327       0.00000000
Si       2.77032627      -2.72567538      -0.30205827       0.00000000
Si      -0.00175932       2.50307253      -3.06737757       0.00000000
Si      -2.89518912      -1.83811473       2.05893970       0.00000000
