10
Lattice="16.28999089631971 0.0 0.0 0.0 16.28999089631971 0.0 0.0 0.0 34.281931910070035" Properties=species:S:1:pos:R:3:initial_magmoms:R:1 pbc="T T T"
Si       0.78395625      -2.19975273      -0.14346997       0.00000000
Si      -0.78200145       1.53502299       1.60909194       0.00000000
Si       1.06065819       1.36580247      -1.78629534       0.00000000
Si      -1.66996935      -0.78864777      -1.79404306       0.00000000
Si      -0.22898853      -2.60249040      -2.33110411       0.00000000
Si      -3.02795262       1.61591913       0.94871871       0.00000000
Si       0.73187712       3.25764162       1.29232671       0.00000000
Si       0.76870881       3.58171555      -1.03689189       0.00000000
Si      -0.48384558      -3.71268648       1.11292926       0.00000000
Si      -3.35176524      -1.95157458      -0.54405456       0.00000000
