10
Lattice="16.28999089631971 0.0 0.0 0.0 16.28999089631971 0.0 0.0 0.0 34.281931910070035" Properties=species:S:1:pos:R:3:initial_magmoms:R:1 pbc="T T T"
Si      -0.90181440      -2.16202509       0.33541461       0.00000000
Si      -0.37313874       1.40685327       1.86942907       0.00000000
Si       2.26962054      -0.44901756      -0.51385216       0.00000000
Si      -0.80176122       1.30381902      -1.81066981       0.00000000
Si       1.92847536       1.57973157       2.39486854       0.00000000
Si      -0.06033816      -0.22092498      -3.51465419       0.00000000
Si       2.18561301      -0.30182112      -2.85428096       0.00000000
Si      -3.20119677      -1.71892080      -0.09478959       0.00000000
Si      -2.97013941       2.00675763      -1.06085498       0.00000000
Si       3.54566511       1.17605655       0.66102458       0.00000000
