10
Lattice="16.28999089631971 0.0 0.0 0.0 16.28999089631971 0.0 0.0 0.0 34.281931910070035" Properties=species:S:1:pos:R:3:initial_magmoms:R:1 pbc="T T T"
Si      -1.88683812      -0.92294253      -1.08976186       0.00000000
Si      -1.18814373       1.46577420       1.45987975       0.00000000
Si       0.99831636       1.78302195      -1.33380242       0.00000000
Si       1.52881650      -1.25452548       1.44545390       0.00000000
Si       0.98220555       0.01034415      -3.06565803       0.00000000
Si      -3.34914255       0.96348834      -1.30120029       0.00000000
Si      -2.52121959       2.80179855      -0.06844392       0.00000000
Si      -2.53446336       0.10826334       2.83476082       0.00000000
Si      -2.65699674      -2.77031161       0.08458386       0.00000000
Si       0.17884791      -2.60814303       2.83208683       0.00000000
