10
Lattice="16.28999089631971 0.0 0.0 0.0 16.28999089631971 0.0 0.0 0.0 34.281931910070035" Properties=species:S:1:pos:R:3:initial_magmoms:R:1 pbc="T T T"
Si       1.90354142      -1.09123452      -0.86664772       0.00000000
Si      -0.00179190       2.00098215      -1.25660492       0.00000000
Si      -1.32905223      -1.98993753      -0.12176949       0.00000000
Si      -0.18740016       0.96804954       2.21519683       0.00000000
Si      -1.26905616      -2.65917960       2.26853955       0.00000000
Si       1.88984234      -3.31152568      -0.10788530       0.00000000
Si       2.25676188       2.51113608      -1.83192462       0.00000000
Si      -2.46000177       0.68199714       2.87361598       0.00000000
Si       3.86586854      -0.14512761       0.09221845       0.00000000
Si       1.59958026      -1.66770504      -3.23093676       0.00000000
