10
Lattice="16.28999089631971 0.0 0.0 0.0 16.28999089631971 0.0 0.0 0.0 34.281931910070035" Properties=species:S:1:pos:R:3:initial_magmoms:R:1 pbc="T T T"
Si      -1.35821133       1.35733167      -1.36161053       0.00000000
Si       1.35757602      -1.35791811      -1.36181622       0.00000000
Si       1.35475785       1.35650088       1.36994105       0.00000000
Si      -1.36855548      -1.35218403       1.37206653       0.00000000
Si       2.71174743      -2.71391400      -0.00023997       0.00000000
Si       2.71401018       2.71241532      -0.00023997       0.00000000
Si      -2.71810053       2.71230129      -0.00054851       0.00000000
Si      -0.00050499       2.71484253      -2.71787308       0.00000000
Si       2.71465046      -0.00032580      -2.71818162       0.00000000
Si      -0.00065160      -2.71557558      -2.71852444       0.00000000
