10
Lattice="16.28999089631971 0.0 0.0 0.0 16.28999089631971 0.0 0.0 0.0 34.281931910070035" Properties=species:S:1:pos:R:3:initial_magmoms:R:1 pbc="T T T"
Si      -0.86614486      -1.86008994      -1.21406102       0.00000000
Si       1.83614527       0.83175111      -1.33723607       0.00000000
Si      -1.78881046       1.80864612      -0.20737152       0.00000000
Si      -2.13564085      -0.54353214      -2.79027656       0.00000000
Si       0.57680121       2.20543794      -2.78479145       0.00000000
Si      -2.50361566      -0.06587676       2.75109229       0.00000000
Si       3.01539466       2.30084847       0.18316846       0.00000000
Si       1.94787838      -1.65017700       2.86878223       0.00000000
Si      -2.76381583      -2.69876430       0.32482149       0.00000000
Si      -3.52499866       0.75135996      -1.45029794       0.00000000
