10
Lattice="16.28999089631971 0.0 0.0 0.0 16.28999089631971 0.0 0.0 0.0 34.281931910070035" Properties=species:S:1:pos:R:3:initial_magmoms:R:1 pbc="T T T"
Si       0.75186495      -1.00528848      -1.94632349       0.00000000
Si       1.00291014      -0.20706219       2.08204573       0.00000000
Si      -2.24456652      -0.65042712       0.23880807       0.00000000
Si      -0.05999607       2.30283585      -0.49695116       0.00000000
Si      -2.78234829       0.32521356      -1.90295682       0.00000000
Si      -0.03380175       1.78535142       3.03429549       0.00000000
Si      -2.32266078       2.46728340      -1.06068357       0.00000000
Si       3.26146392       0.30309174       1.50672603       0.00000000
Si       0.92041758       3.17540970       1.45046935       0.00000000
Si      -1.08053199      -0.50710770      -3.43292602       0.00000000
