10
Lattice="16.28999089631971 0.0 0.0 0.0 16.28999089631971 0.0 0.0 0.0 34.281931910070035" Properties=species:S:1:pos:R:3:initial_magmoms:R:1 pbc="T T T"
Si       1.35691047       1.35635427      -1.35804521       0.00000000
Si      -1.35791811      -1.35811359      -1.35801093       0.00000000
Si       1.35659706      -1.36054080       1.35962218       0.00000000
Si      -1.36278882       1.35923760       1.35996500       0.00000000
Si       2.71417205      -0.00130320      -2.71564475       0.00000000
Si       2.71579779       2.71415835      -0.00017141       0.00000000
Si      -0.00058644       2.71410948      -2.71588473       0.00000000
Si      -2.71516833       2.71526607      -0.00095989       0.00000000
Si       2.71627183      -2.71430496      -0.00137128       0.00000000
Si      -2.71562445      -2.71562445      -0.00174838       0.00000000
