10
Lattice="16.28999089631971 0.0 0.0 0.0 16.28999089631971 0.0 0.0 0.0 34.281931910070035" Properties=species:S:1:pos:R:3:initial_magmoms:R:1 pbc="T T T"
Si      -1.35237951       1.35602847      -1.36092489       0.00000000
Si      -1.33923348      -1.34757396       1.38636210       0.00000000
Si       1.36278882      -1.35923760      -1.35996500       0.00000000
Si       1.36032903       1.36026387       1.39901214       0.00000000
Si       0.21134646      -2.54642022       2.82030755       0.00000000
Si      -2.70648576       2.71075910      -0.00119987       0.00000000
Si      -2.71016730      -0.00259011      -2.71801021       0.00000000
Si       0.00446346       2.71208028      -2.71811305       0.00000000
Si       2.71815581       2.71415835       0.00233117       0.00000000
Si      -2.71272483      -2.71989243      -0.00065136       0.00000000
