10
Lattice="16.28999089631971 0.0 0.0 0.0 16.28999089631971 0.0 0.0 0.0 34.281931910070035" Properties=species:S:1:pos:R:3:initial_magmoms:R:1 pbc="T T T"
Si      -0.05031981      -1.04037714      -2.03223406       0.00000000
Si      -0.92649375       2.10417930       0.04837183       0.00000000
Si       2.20895658       0.34306740       0.67837125       0.00000000
Si      -1.29130830      -1.45940481       1.38351670       0.00000000
Si       2.03988267      -1.80502974       1.66857112       0.00000000
Si       1.72514358       1.92202452       2.42349397       0.00000000
Si      -0.55798137       2.67045228       2.27484743       0.00000000
Si       0.22897224      -3.34723662       1.29510355       0.00000000
Si       1.09823922       0.30208176      -3.54804481       0.00000000
Si      -2.27107035      -1.13261112      -2.74680705       0.00000000
