10
Lattice="16.28999089631971 0.0 0.0 0.0 16.28999089631971 0.0 0.0 0.0 34.281931910070035" Properties=species:S:1:pos:R:3:initial_magmoms:R:1 pbc="T T T"
Si       0.92649375      -2.10417930      -0.04837183       0.00000000
Si       0.36851238       0.56627298       2.22647559       0.00000000
Si      -2.18468448       0.09863595      -0.80552300       0.00000000
Si       1.34105796       1.53054324      -1.17761930       0.00000000
Si       0.30555153       2.88102401       2.00216879       0.00000000
Si       2.65163733      -0.18215478       2.37512213       0.00000000
Si       0.24555546       3.55026608      -0.38814025       0.00000000
Si       3.13545033      -1.76111190       0.62999941       0.00000000
Si      -2.74502790      -2.10642732      -1.32890555       0.00000000
Si      -2.29526100       1.68372693      -2.45184514       0.00000000
