10
Lattice="16.28999089631971 0.0 0.0 0.0 16.28999089631971 0.0 0.0 0.0 34.281931910070035" Properties=species:S:1:pos:R:3:initial_magmoms:R:1 pbc="T T T"
Si       0.39756885       1.91394468      -1.29674908       0.00000000
Si       1.26044527      -0.13781340       1.98917593       0.00000000
Si      -2.26498019      -0.42468030       0.52396534       0.00000000
Si       0.80872357      -1.83477528      -1.30076007       0.00000000
Si       1.63341948      -2.46050676       1.86270981       0.00000000
Si      -2.02159130      -2.72414412       0.84875254       0.00000000
Si      -1.16213090      -3.07415106      -1.36572437       0.00000000
Si       1.15185613       0.94097556      -3.33282272       0.00000000
Si       1.66709091       3.42617796      -0.00771344       0.00000000
Si       3.48547845       0.45027189       1.55509786       0.00000000
