10
Lattice="16.28999089631971 0.0 0.0 0.0 16.28999089631971 0.0 0.0 0.0 34.281931910070035" Properties=species:S:1:pos:R:3:initial_magmoms:R:1 pbc="T T T"
Si       1.51346969      -0.55423467       1.76610327       0.00000000
Si       0.66999956       2.27686959      -0.39928188       0.00000000
Si       0.78579539      -1.19858562      -1.94464367       0.00000000
Si      -2.52072342       0.01190799       0.68203942       0.00000000
Si       0.96623972      -3.01086441       1.92705703       0.00000000
Si      -3.11596002       1.91964618      -0.57507973       0.00000000
Si      -1.30504959       3.46185306      -0.20161215       0.00000000
Si      -2.88421848      -2.41067565       0.12701463       0.00000000
Si       1.21544414       1.36334268       3.40292931       0.00000000
Si       2.96634221      -0.50225328      -2.45133091       0.00000000
