10
Lattice="16.28999089631971 0.0 0.0 0.0 16.28999089631971 0.0 0.0 0.0 34.281931910070035" Properties=species:S:1:pos:R:3:initial_magmoms:R:1 pbc="T T T"
Si      -2.11455018      -0.81889830       0.54439738       0.00000000
Si       1.15399663      -2.07417312       0.12245513       0.00000000
Si      -0.43716821       0.40055481      -2.34193721       0.00000000
Si       0.18588356       1.75011615       2.00899090       0.00000000
Si      -2.89883223       0.74722230       2.11588202       0.00000000
Si       3.34246039       0.81461403       1.29901169       0.00000000
Si       0.01917170      -3.07073016       2.08249140       0.00000000
Si       2.02529986       2.90543553       1.24745164       0.00000000
Si      -3.36036051      -1.17920052      -1.38471657       0.00000000
Si       3.29002288      -1.62041517       1.07748172       0.00000000
