10
Lattice="16.28999089631971 0.0 0.0 0.0 16.28999089631971 0.0 0.0 0.0 34.281931910070035" Properties=species:S:1:pos:R:3:initial_magmoms:R:1 pbc="T T T"
Si       1.83941630       1.15531938      -0.76153926       0.00000000
Si      -2.05259769       1.05433767       0.38118101       0.00000000
Si       0.79871336      -0.40949802       2.16116848       0.00000000
Si      -0.18588356      -1.75011615      -2.00899090       0.00000000
Si      -3.08471580      -1.00289385       0.10689112       0.00000000
Si       3.15657683      -0.93550212      -0.70997921       0.00000000
Si       3.08574791      -0.75590487       1.63963716       0.00000000
Si       0.97568792       2.12446035      -2.70666288       0.00000000
Si      -0.14705472       1.50840513       3.30913389       0.00000000
Si      -2.30043375      -2.56901445      -1.46459351       0.00000000
