10
Lattice="16.28999089631971 0.0 0.0 0.0 16.28999089631971 0.0 0.0 0.0 34.281931910070035" Properties=species:S:1:pos:R:3:initial_magmoms:R:1 pbc="T T T"
Si      -1.97504914       1.18498347       0.19766973       0.00000000
Si       1.46944597       0.70169175       1.71097790       0.00000000
Si      -0.66999956      -2.27686959       0.39928188       0.00000000
Si       0.42050029       0.33992343      -2.37303093       0.00000000
Si       2.57607454      -0.52041663      -2.50491360       0.00000000
Si       0.84347014      -2.83110426       2.16538516       0.00000000
Si       3.53602795      -0.27285750       1.34405817       0.00000000
Si       0.11579584      -3.47545521      -1.54536179       0.00000000
Si      -3.78595957      -0.35722341      -0.17579785       0.00000000
Si      -1.80597523       3.33308061      -0.79253014       0.00000000
