10
Lattice="16.28999089631971 0.0 0.0 0.0 16.28999089631971 0.0 0.0 0.0 34.281931910070035" Properties=species:S:1:pos:R:3:initial_magmoms:R:1 pbc="T T T"
Si      -1.36580247      -1.36189287      -1.33045852       0.00000000
Si       1.34695494       1.37336103      -1.34740752       0.00000000
Si       1.35643572      -1.35545832       1.35924508       0.00000000
Si      -1.35741312       1.35503478       1.36054779       0.00000000
Si       2.72218932       0.04443912      -2.63419769       0.00000000
Si      -2.62767474      -0.05914899      -2.78457204       0.00000000
Si       2.71016730       2.71432125       0.00123415       0.00000000
Si       2.71200807      -2.71461447      -0.00442237       0.00000000
Si      -2.71608546       2.71313208      -0.00082277       0.00000000
Si       2.71368594       0.00008145       2.71677606       0.00000000
