10
Lattice="16.28999089631971 0.0 0.0 0.0 16.28999089631971 0.0 0.0 0.0 34.281931910070035" Properties=species:S:1:pos:R:3:initial_magmoms:R:1 pbc="T T T"
Si      -1.35691047      -1.35635427       1.35804521       0.00000000
Si       1.35726158      -1.35765747      -1.35759954       0.00000000
Si      -1.35749691       1.35775521      -1.35783952       0.00000000
Si       1.35888733       1.35780408       1.35787380       0.00000000
Si       2.71321838      -0.00231318       2.71437632       0.00000000
Si      -0.00008379      -2.71529865      -2.71382781       0.00000000
Si      -2.71482858      -2.71446786       0.00003428       0.00000000
Si       2.71489625      -2.71482624      -0.00023997       0.00000000
Si       2.71603655      -0.00158013      -2.71396494       0.00000000
Si      -2.71523583       2.71496361      -0.00010285       0.00000000
