10
Lattice="16.28999089631971 0.0 0.0 0.0 16.28999089631971 0.0 0.0 0.0 34.281931910070035" Properties=species:S:1:pos:R:3:initial_magmoms:R:1 pbc="T T T"
Si       1.46988091      -1.25656727       1.27806542       0.00000000
Si       1.37129383       1.34028093      -1.37175799       0.00000000
Si      -1.34270240      -1.37336333      -1.37155230       0.00000000
Si      -1.41495496       1.36035021       1.55753188       0.00000000
Si      -0.30746886      -2.13622403       2.73669387       0.00000000
Si       2.47323088       0.32521845       2.73295714       0.00000000
Si      -2.68445095       2.67690801      -0.01868366       0.00000000
Si      -2.70052918      -2.72725781       0.02512867       0.00000000
Si       0.01806398       2.69862258      -2.73559685       0.00000000
Si      -2.69927485      -0.01772515      -2.73508262       0.00000000
