10
Lattice="16.28999089631971 0.0 0.0 0.0 16.28999089631971 0.0 0.0 0.0 34.281931910070035" Properties=species:S:1:pos:R:3:initial_magmoms:R:1 pbc="T T T"
Si       1.23782237      -1.41494940      -1.37607752       0.00000000
Si      -1.50271016       1.30996035      -1.33329364       0.00000000
Si      -0.81763421      -1.80323784       1.41053088       0.00000000
Si       0.89035015       1.90099413       1.37827156       0.00000000
Si       0.02224302      -0.05794353       2.74882968       0.00000000
Si      -2.65169273      -2.59672374       0.08800177       0.00000000
Si       2.59055048      -2.70516627       0.09763500       0.00000000
Si       2.56987847      -0.05550003      -2.73593967       0.00000000
Si      -0.14488339       2.66385483      -2.72997461       0.00000000
Si       2.66769992       2.78065089      -0.08035689       0.00000000
