10
Lattice="16.28999089631971 0.0 0.0 0.0 16.28999089631971 0.0 0.0 0.0 34.281931910070035" Properties=species:S:1:pos:R:3:initial_magmoms:R:1 pbc="T T T"
Si      -1.48355473       1.65827543       0.49578558       0.00000000
Si      -1.29175139      -1.98511569       0.19345305       0.00000000
Si       1.76399523       0.34596702       1.60909194       0.00000000
Si       0.63561951       0.96850566      -2.11841888       0.00000000
Si       2.03509341      -0.81671544      -2.67519205       0.00000000
Si       1.64675610       2.84005303      -1.16880884       0.00000000
Si       2.81504232      -1.74791700       1.42444935       0.00000000
Si       3.04609968       1.97776143       0.45838397       0.00000000
Si      -0.29533770       3.66010955       0.06263312       0.00000000
Si       2.89046502      -2.20032288      -0.92790957       0.00000000
