10
Lattice="16.28999089631971 0.0 0.0 0.0 16.28999089631971 0.0 0.0 0.0 34.281931910070035" Properties=species:S:1:pos:R:3:initial_magmoms:R:1 pbc="T T T"
Si      -2.09803701      -1.00937727       0.31196575       0.00000000
Si      -0.38033796       2.31053192       0.23712826       0.00000000
Si       1.01193480       0.22930034      -2.13573127       0.00000000
Si       1.33083436      -0.59561127       1.93710165       0.00000000
Si      -2.21346795      -0.03142341       2.55681647       0.00000000
Si      -0.09007588       0.66671127       3.36017972       0.00000000
Si       1.66564435       3.14516636      -0.47816465       0.00000000
Si      -1.52979294      -3.36406419       0.13801914       0.00000000
Si       3.53725132      -0.12396690       1.14134900       0.00000000
Si      -0.69043440       0.27974721      -3.71815185       0.00000000
