10
Lattice="10.86 0.0 0.0 0.0 10.86 0.0 0.0 0.0 10.86" Properties=species:S:1:pos:R:3:initial_magmoms:R:1 pbc="T T T"
Si       1.35750000       1.35750000       1.35750000       0.00000000
Si      -1.35750000      -1.35750000       1.35750000       0.00000000
Si       1.35750000      -1.35750000      -1.35750000       0.00000000
Si      -1.35750000       1.35750000      -1.35750000       0.00000000
Si       0.05250810       2.64099996      -2.60227320       0.00000000
Si       2.50222002       2.75862462       0.01740858       0.00000000
Si       0.08731440      -2.56206948       2.70184854       0.00000000
Si       0.22143540      -2.76289260      -2.51025642       0.00000000
Si      -0.00652686       2.63159520       2.71962636       0.00000000
Si      -2.55824676      -2.82723810      -0.00458292       0.00000000
