10
Lattice="16.28999089631971 0.0 0.0 0.0 16.28999089631971 0.0 0.0 0.0 34.53561885213415" Properties=species:S:1:pos:R:3:initial_magmoms:R:1 pbc="T T T"
Si      -0.32690772       0.67227364       2.24326238       0.00000000
Si      -1.89436410      -0.79839155      -1.29674414       0.00000000
Si       0.90104877       1.91368730      -1.41171328       0.00000000
Si       1.81288152      -1.78706580       0.02268991       0.00000000
Si      -0.54623628      -2.15108214      -2.82321935       0.00000000
Si      -2.46905901       1.69986476       2.02959038       0.00000000
Si       2.19691827       0.55604612      -2.83005740       0.00000000
Si       0.87835680      -3.41974734      -1.42811771       0.00000000
Si       3.53965410      -0.75598143      -1.32609943       0.00000000
Si       2.78371665       2.84532869      -0.18808109       0.00000000
