10
Lattice="16.28999089631971 0.0 0.0 0.0 16.28999089631971 0.0 0.0 0.0 34.53561885213415" Properties=species:S:1:pos:R:3:initial_magmoms:R:1 pbc="T T T"
Si       0.09606213       0.42451740      -2.29264834       0.00000000
Si      -1.62924435      -0.97453296       1.41824052       0.00000000
Si       2.27002779       0.23877882       0.77971110       0.00000000
Si      -0.02015073       2.45387673       0.29068647       0.00000000
Si       0.48441573      -2.54041410      -0.93950750       0.00000000
Si      -0.63814446      -3.07262469       1.07101921       0.00000000
Si       0.83285883       2.65199571      -1.89241483       0.00000000
Si       1.71836694       2.26367469       1.81059990       0.00000000
Si      -0.75002418      -0.31387572       3.48668349       0.00000000
Si      -2.13811137       0.32474115      -3.07443158       0.00000000
