10
Lattice="16.28999089631971 0.0 0.0 0.0 16.28999089631971 0.0 0.0 0.0 34.53561885213415" Properties=species:S:1:pos:R:3:initial_magmoms:R:1 pbc="T T T"
Si       0.29266614       0.62706726       2.21815497       0.00000000
Si      -1.77982911       1.48892229      -0.34849912       0.00000000
Si      -0.51152229      -2.10692321      -0.89803020       0.00000000
Si       1.86269634       0.65265885      -1.29090762       0.00000000
Si      -3.10331016       0.50932314       1.35680162       0.00000000
Si      -1.66794939      -1.26982668      -2.76416341       0.00000000
Si       1.03967667       2.82660822       1.74187398       0.00000000
Si      -0.42404499       3.46548573      -0.03308514       0.00000000
Si      -2.65904928       0.82826505      -2.41694210       0.00000000
Si       1.48882455      -3.08337839      -1.53206998       0.00000000
