10
Lattice="16.28999089631971 0.0 0.0 0.0 16.28999089631971 0.0 0.0 0.0 34.53561885213415" Properties=species:S:1:pos:R:3:initial_magmoms:R:1 pbc="T T T"
Si       1.35314514      -1.36049193       1.36163661       0.00000000
Si      -1.36117611       1.35687555       1.36198196       0.00000000
Si       1.34677575       1.35014778      -1.38693741       0.00000000
Si      -1.36733373      -1.37142252      -1.38601877       0.00000000
Si       2.71233387       2.71523349       0.00158864       0.00000000
Si      -2.71412088      -2.71450044       0.00100153       0.00000000
Si       2.71150308      -0.00040725       2.71871451       0.00000000
Si      -2.71801419       2.71334385       0.00151957       0.00000000
Si       2.71342530      -2.71819827       0.00628549       0.00000000
Si      -0.00332316       2.71451673       2.71857636       0.00000000
