10
Lattice="16.28999089631971 0.0 0.0 0.0 16.28999089631971 0.0 0.0 0.0 34.53561885213415" Properties=species:S:1:pos:R:3:initial_magmoms:R:1 pbc="T T T"
Si      -1.87166073      -0.93822412       1.20315256       0.00000000
Si       1.89436410       0.79839155       1.29674414       0.00000000
Si      -1.33066983       1.37263034      -1.51735780       0.00000000
Si       1.34812782      -1.35269059      -1.52647521       0.00000000
Si       2.77272090      -2.62135579      -0.13137357       0.00000000
Si      -2.61589837       2.81768692      -0.08903288       0.00000000
Si       2.79541287       2.71207885      -0.11496914       0.00000000
Si      -3.69132119       0.91782820       0.93180605       0.00000000
Si      -2.70149192       0.00122018      -2.89322309       0.00000000
Si       0.01264104      -2.71091821      -2.89463905       0.00000000
