10
Lattice="16.28999089631971 0.0 0.0 0.0 16.28999089631971 0.0 0.0 0.0 34.53561885213415" Properties=species:S:1:pos:R:3:initial_magmoms:R:1 pbc="T T T"
Si      -1.27239561       0.97883352      -1.69013960       0.00000000
Si      -0.85300956      -0.19811898       2.18310129       0.00000000
Si      -0.73679670      -2.22747831      -0.40023351       0.00000000
Si       2.37438153      -0.11662011      -0.14087087       0.00000000
Si      -0.83285883      -2.65199571       1.89241483       0.00000000
Si      -1.88025696       2.96315100      -0.83800726       0.00000000
Si       0.10839366       0.83035017      -3.57143395       0.00000000
Si       0.72003429       3.35412729      -1.53172462       0.00000000
Si       2.94487362      -2.18369079       0.84923134       0.00000000
Si      -3.43712484      -0.02619432      -1.54543527       0.00000000
