10
Lattice="16.28999089631971 0.0 0.0 0.0 16.28999089631971 0.0 0.0 0.0 34.53561885213415" Properties=species:S:1:pos:R:3:initial_magmoms:R:1 pbc="T T T"
Si      -1.51439985       1.38689802      -1.16568139       0.00000000
Si       1.11335634       1.44454833       1.60123938       0.00000000
Si      -1.58921982      -1.18788309       1.56283229       0.00000000
Si       1.24326909      -0.75614922      -2.33029218       0.00000000
Si      -0.19520307       2.93154840      -2.30003897       0.00000000
Si       2.78018172       2.63788857       0.37163800       0.00000000
Si      -0.22136481      -2.49329853       3.09597633       0.00000000
Si       2.48446935       0.21134646       3.10538384       0.00000000
Si      -3.02679603       2.73064383       0.22230590       0.00000000
Si      -2.66191632      -3.09177684       0.49940609       0.00000000
