10
Lattice="16.28999089631971 0.0 0.0 0.0 16.28999089631971 0.0 0.0 0.0 34.53561885213415" Properties=species:S:1:pos:R:3:initial_magmoms:R:1 pbc="T T T"
Si      -1.32768387       1.40092371       1.38851915       0.00000000
Si       1.40493105      -1.32432813       1.39441783       0.00000000
Si       1.05195933       1.64527371      -1.37862611       0.00000000
Si      -1.00258434      -1.64845026      -1.47504961       0.00000000
Si       2.76416865       0.54602451      -2.48711648       0.00000000
Si      -2.67592572       0.03872133       2.76235029       0.00000000
Si       0.04054581      -2.67700086       2.76266111       0.00000000
Si       0.04588893       2.74598901       2.76293739       0.00000000
Si       2.78172927      -2.73207735       0.00703146       0.00000000
Si       2.75331951       0.04043178       2.76418067       0.00000000
