10
Lattice="16.28999089631971 0.0 0.0 0.0 16.28999089631971 0.0 0.0 0.0 34.53561885213415" Properties=species:S:1:pos:R:3:initial_magmoms:R:1 pbc="T T T"
Si      -1.35738054       1.35723393      -1.35801036       0.00000000
Si       1.35744570      -1.35769005      -1.35787222       0.00000000
Si       1.35777150       1.35783666       1.35797583       0.00000000
Si      -1.35754344      -1.35876519       1.35835572       0.00000000
Si       2.71402803      -0.00123804      -2.71481198       0.00000000
Si      -2.71490769       2.71453302       0.00024175       0.00000000
Si      -0.00040725       2.71428867      -2.71553723       0.00000000
Si      -2.71523349      -0.00040725      -2.71460477       0.00000000
Si       2.71518462       2.71469592       0.00006907       0.00000000
Si      -2.71528236      -2.71526607       0.00006907       0.00000000
