10
Lattice="16.28999089631971 0.0 0.0 0.0 16.28999089631971 0.0 0.0 0.0 34.53561885213415" Properties=species:S:1:pos:R:3:initial_magmoms:R:1 pbc="T T T"
Si      -1.03993731       0.94058460       1.99073779       0.00000000
Si       1.04202243       1.51718544      -1.62987491       0.00000000
Si      -1.68386472      -1.32571278      -1.49563488       0.00000000
Si       1.79102034      -1.38056121       1.41540859       0.00000000
Si      -1.49819130      -1.45062450       2.68000006       0.00000000
Si       1.97654715       3.14986698      -0.17906728       0.00000000
Si       2.36939679       0.06206490      -3.00674173       0.00000000
Si       2.45817729       2.17442178       2.25894156       0.00000000
Si       2.49429222      -3.11586975      -0.13234057       0.00000000
Si      -0.36877302      -2.63015082      -3.02670333       0.00000000
