10
Lattice="16.28999089631971 0.0 0.0 0.0 16.28999089631971 0.0 0.0 0.0 34.53561885213415" Properties=species:S:1:pos:R:3:initial_magmoms:R:1 pbc="T T T"
Si       0.32612580       1.35933534       1.82617547       0.00000000
Si       1.83308112      -0.46312470      -1.36077321       0.00000000
Si      -0.97782354      -1.92723732       0.89523281       0.00000000
Si      -1.96905375       0.43570863      -1.30323684       0.00000000
Si      -1.09206531      -2.91372714      -1.25540498       0.00000000
Si      -2.74810671      -0.78856632       1.91368878       0.00000000
Si       1.12229955      -2.69185734      -2.01525809       0.00000000
Si      -1.69991037       0.98310150       3.00477320       0.00000000
Si      -2.01930840      -1.34939844      -2.84815408       0.00000000
Si       2.28387429       0.55535868       2.92371805       0.00000000
