10
Lattice="16.28999089631971 0.0 0.0 0.0 16.28999089631971 0.0 0.0 0.0 34.53561885213415" Properties=species:S:1:pos:R:3:initial_magmoms:R:1 pbc="T T T"
Si       2.00034684      -0.97645518      -0.63403978       0.00000000
Si      -1.33579629      -1.36213722       1.33345552       0.00000000
Si       0.51152229       2.10692321       0.89803020       0.00000000
Si      -1.15642710       0.83709653      -1.86613321       0.00000000
Si       3.06001134       0.88190869      -1.60877363       0.00000000
Si      -2.86101270       0.22763646       2.22968987       0.00000000
Si       2.37421863       2.75958206      -0.39287742       0.00000000
Si       1.29116169      -2.56288941      -2.31067594       0.00000000
Si      -2.28283173      -0.89810028      -2.78961617       0.00000000
Si       3.17371554      -1.39230630       1.49781063       0.00000000
