10
Lattice="16.28999089631971 0.0 0.0 0.0 16.28999089631971 0.0 0.0 0.0 34.53561885213415" Properties=species:S:1:pos:R:3:initial_magmoms:R:1 pbc="T T T"
Si       1.97231175       1.28208816       0.30857593       0.00000000
Si      -1.60930539      -0.33694236       1.72084178       0.00000000
Si      -1.35816246       0.66635874      -1.86261057       0.00000000
Si       1.33144686      -2.00324646      -0.04465458       0.00000000
Si       2.54435139       0.18505440       2.35239499       0.00000000
Si      -2.94601392       1.57542219       1.33998276       0.00000000
Si       3.15134937       0.63618966      -1.69825547       0.00000000
Si       2.08125927      -2.15474346       2.18555332       0.00000000
Si      -0.02236617       2.02849596      -3.19606610       0.00000000
Si      -2.88337887       2.25613242      -0.96637623       0.00000000
