10
Lattice="16.28999089631971 0.0 0.0 0.0 16.28999089631971 0.0 0.0 0.0 34.53561885213415" Properties=species:S:1:pos:R:3:initial_magmoms:R:1 pbc="T T T"
Si       1.71220932      -1.09924920      -1.10849038       0.00000000
Si      -1.05195933      -1.64527371       1.37862611       0.00000000
Si       1.79980065       1.20673062       1.14321738       0.00000000
Si      -1.47100329       0.83201175      -1.85611787       0.00000000
Si       2.05452738       0.31832289      -2.99427436       0.00000000
Si      -2.37964320      -0.24435000       2.76714525       0.00000000
Si       0.35950401       2.45285924       2.76475539       0.00000000
Si      -0.15514596       0.20447208      -3.81853644       0.00000000
Si      -2.05454367      -3.29372397      -0.09642350       0.00000000
Si       0.35297172      -2.96960184       2.77304394       0.00000000
