10
Lattice="16.28999089631971 0.0 0.0 0.0 16.28999089631971 0.0 0.0 0.0 34.53561885213415" Properties=species:S:1:pos:R:3:initial_magmoms:R:1 pbc="T T T"
Si      -1.45388250       1.22961647      -1.36815348       0.00000000
Si       1.34302905       1.37100716       1.37777511       0.00000000
Si      -1.36557441      -1.35214394       1.37680811       0.00000000
Si       1.44029664      -1.24612862      -1.62153800       0.00000000
Si       0.35225496       2.16751322      -2.57347212       0.00000000
Si      -0.35950401      -2.45285924      -2.76475539       0.00000000
Si       2.68394040      -2.69605265       0.00094628       0.00000000
Si       2.71935486       2.69340329       0.02630580       0.00000000
Si       2.69952993       0.01160846       2.73595815       0.00000000
Si      -2.73914721      -2.69720924       0.00238987       0.00000000
