10
Lattice="16.28999089631971 0.0 0.0 0.0 16.28999089631971 0.0 0.0 0.0 34.53561885213415" Properties=species:S:1:pos:R:3:initial_magmoms:R:1 pbc="T T T"
Si       0.87922017       0.66065724       2.06844298       0.00000000
Si       0.99109989      -2.09809173      -0.34722131       0.00000000
Si       1.62924435       0.97453296      -1.41824052       0.00000000
Si      -2.19942041       0.31664502      -0.84177164       0.00000000
Si       2.11366008      -1.56588114      -2.35774802       0.00000000
Si       2.65904928      -0.82826505       2.41694210       0.00000000
Si      -1.96914660      -0.06582789      -3.22452346       0.00000000
Si      -0.44426088      -0.31894191       3.77374372       0.00000000
Si      -3.01403186       2.41324947      -0.05169985       0.00000000
Si       2.14752699      -2.93518826       1.51891190       0.00000000
