10
Lattice="16.28999089631971 0.0 0.0 0.0 16.28999089631971 0.0 0.0 0.0 34.53561885213415" Properties=species:S:1:pos:R:3:initial_magmoms:R:1 pbc="T T T"
Si      -1.35576783       1.35580856       1.35676708       0.00000000
Si      -1.35620766      -1.35778682      -1.35711244       0.00000000
Si       1.35938421       1.35685112      -1.35731965       0.00000000
Si       1.35832536      -1.35656682       1.36253453       0.00000000
Si      -2.71220355       2.71297732       0.00031082       0.00000000
Si      -2.71295289      -0.00045286      -2.71415580       0.00000000
Si       0.00174303       2.71429681      -2.71370684       0.00000000
Si      -2.70769122      -0.00588883       2.72223714       0.00000000
Si      -2.71423980      -2.71640541       0.00051803       0.00000000
Si       2.71673217       0.00005050      -2.71398312       0.00000000
