10
Lattice="16.28999089631971 0.0 0.0 0.0 16.28999089631971 0.0 0.0 0.0 34.53561885213415" Properties=species:S:1:pos:R:3:initial_magmoms:R:1 pbc="T T T"
Si      -0.99113247      -1.79746955      -1.42884296       0.00000000
Si       1.78145811       0.96866856      -1.47736553       0.00000000
Si      -1.74706992       1.80384057      -0.29082461       0.00000000
Si       0.34342578      -0.35170924       2.63676144       0.00000000
Si       2.48676624       2.70026298       0.02403680       0.00000000
Si       0.38004570       2.23933743      -2.93811942       0.00000000
Si      -2.33386830      -0.48544200      -2.93280093       0.00000000
Si      -2.71790505      -2.82855392      -0.08005361       0.00000000
Si       1.76059062       2.58422931       2.52044541       0.00000000
Si      -3.62973780       0.87219918      -1.51445680       0.00000000
