10
Lattice="16.28999089631971 0.0 0.0 0.0 16.28999089631971 0.0 0.0 0.0 34.53561885213415" Properties=species:S:1:pos:R:3:initial_magmoms:R:1 pbc="T T T"
Si      -0.45791190      -2.07260928      -0.93740083       0.00000000
Si       0.48695697       0.49436892       2.22492395       0.00000000
Si       2.11963851       1.00768311      -0.08917102       0.00000000
Si      -1.84277367       1.48840101      -0.01246737       0.00000000
Si       0.48200481       0.37597320      -3.15348366       0.00000000
Si      -1.53420849      -0.29466981       3.07201408       0.00000000
Si       2.19204756       1.75145193      -2.29054166       0.00000000
Si      -0.70589457       3.54854844      -0.30840325       0.00000000
Si       0.34435431      -3.80485367       0.43100476       0.00000000
Si       0.80249427      -2.37964320      -2.93221382       0.00000000
