10
Lattice="16.28999089631971 0.0 0.0 0.0 16.28999089631971 0.0 0.0 0.0 34.53561885213415" Properties=species:S:1:pos:R:3:initial_magmoms:R:1 pbc="T T T"
Si       2.02116546       0.78903873      -0.84709013       0.00000000
Si      -1.45710792       1.56468708      -0.95491039       0.00000000
Si      -1.23408153      -2.00761218      -0.05805441       0.00000000
Si       0.49893012       1.11584871       2.20054356       0.00000000
Si      -0.45357876       2.83885830       0.83189445       0.00000000
Si       2.49748506      -0.59901588       2.07174625       0.00000000
Si      -2.12392278      -1.58006484       2.15891672       0.00000000
Si       1.53420849       0.29466981      -3.07201408       0.00000000
Si       1.86274521       3.00128589       0.10364145       0.00000000
Si      -0.30856518       1.78307082      -3.08448145       0.00000000
