10
Lattice="16.28999089631971 0.0 0.0 0.0 16.28999089631971 0.0 0.0 0.0 34.53561885213415" Properties=species:S:1:pos:R:3:initial_magmoms:R:1 pbc="T T T"
Si       1.23408153       2.00761218       0.05805441       0.00000000
Si      -2.12224491       0.31105755      -1.11070066       0.00000000
Si       1.55880639      -1.77900551      -0.52798084       0.00000000
Si      -0.88984125       0.42754734       2.21697113       0.00000000
Si       2.11406733      -2.25946277       1.81170504       0.00000000
Si      -0.22302639       3.57229926      -0.89685599       0.00000000
Si      -2.50628166       2.72984562      -0.63576656       0.00000000
Si      -1.77051123      -0.61891411      -3.34812651       0.00000000
Si       0.45292716      -3.87450224      -0.96858651       0.00000000
Si      -3.91466619      -1.15308928      -0.26181467       0.00000000
