10
Lattice="16.28999089631971 0.0 0.0 0.0 16.28999089631971 0.0 0.0 0.0 34.53561885213415" Properties=species:S:1:pos:R:3:initial_magmoms:R:1 pbc="T T T"
Si      -1.35705474       1.35759231       1.35676708       0.00000000
Si       1.35764118      -1.35744570       1.35638719       0.00000000
Si      -1.35778779      -1.35684297      -1.35700883       0.00000000
Si       1.35803214       1.35668007      -1.35797583       0.00000000
Si      -2.71309950      -0.00255753      -2.71322334       0.00000000
Si       0.00127062       2.71324611       2.71363777       0.00000000
Si      -2.71394658      -0.00131949       2.71401766       0.00000000
Si      -0.00174303      -2.71429681       2.71370684       0.00000000
Si       2.71498914      -2.71424632      -0.00027629       0.00000000
Si      -2.71469592      -2.71474968      -0.00044896       0.00000000
