10
Lattice="16.28999089631971 0.0 0.0 0.0 16.28999089631971 0.0 0.0 0.0 34.53561885213415" Properties=species:S:1:pos:R:3:initial_magmoms:R:1 pbc="T T T"
Si      -1.55717739       0.14905350      -1.75123314       0.00000000
Si       1.84277367      -1.48840101       0.01246737       0.00000000
Si       1.13687910       2.06014743      -0.29593588       0.00000000
Si      -1.14854274      -0.21838374       2.12957106       0.00000000
Si       2.32973064      -0.99403209       2.23739132       0.00000000
Si      -0.02197521      -0.44038386      -3.47318006       0.00000000
Si      -2.28281544       2.37948030      -1.34637185       0.00000000
Si       0.30856518      -1.78307082       3.08448145       0.00000000
Si      -0.53561520       3.71873007      -0.46768161       0.00000000
Si       1.81157832       2.94993981       1.74757236       0.00000000
