10
Lattice="16.28999089631971 0.0 0.0 0.0 16.28999089631971 0.0 0.0 0.0 34.53561885213415" Properties=species:S:1:pos:R:3:initial_magmoms:R:1 pbc="T T T"
Si       0.67469922       0.88979238       2.04350825       0.00000000
Si      -1.67249430       1.65858264      -0.17174573       0.00000000
Si      -1.13687910      -2.06014743       0.29593588       0.00000000
Si       1.62789228       0.16254162      -1.80949476       0.00000000
Si       2.35484982       2.30795091       1.28113403       0.00000000
Si       2.54128887       2.23853922      -1.13266532       0.00000000
Si      -3.41969454       0.31933287      -1.05043597       0.00000000
Si      -2.69405649      -1.91109393      -1.45529726       0.00000000
Si       0.70589457      -3.54854844       0.30840325       0.00000000
Si       1.03443129      -0.84193236       3.48405878       0.00000000
