10
Lattice="16.28999089631971 0.0 0.0 0.0 16.28999089631971 0.0 0.0 0.0 34.53561885213415" Properties=species:S:1:pos:R:3:initial_magmoms:R:1 pbc="T T T"
Si      -1.35658233      -1.35645201       1.35693976       0.00000000
Si       1.35799956       1.35868374       1.35714697       0.00000000
Si      -1.35575154       1.35918873      -1.36018611       0.00000000
Si       1.35847197      -1.35593073      -1.36073868       0.00000000
Si       0.00138465      -2.71409319       2.71450116       0.00000000
Si      -2.71402803       0.00123804       2.71481198       0.00000000
Si       2.71577106       0.00060273       2.71419034       0.00000000
Si      -2.71443528       2.71552671      -0.00072525       0.00000000
Si       2.71568961       2.71510317      -0.00003454       0.00000000
Si       0.00115659       2.71593396       2.71488105       0.00000000
