10
Lattice="16.28999089631971 0.0 0.0 0.0 16.28999089631971 0.0 0.0 0.0 34.53561885213415" Properties=species:S:1:pos:R:3:initial_magmoms:R:1 pbc="T T T"
Si       1.33799544       1.35296595       1.37182462       0.00000000
Si       1.35052245      -1.35873261      -1.35807943       0.00000000
Si      -1.36143675       1.35819504      -1.35794129       0.00000000
Si      -1.35620766      -1.36519974       1.36294896       0.00000000
Si       0.05157414      -2.74998006       2.64166550       0.00000000
Si       2.71016730      -2.71471221       0.00189946       0.00000000
Si       2.71042794       0.00048870      -2.71498466       0.00000000
Si       2.71305063       2.71564074      -0.00221028       0.00000000
Si      -0.00480555      -2.71461447      -2.71550269       0.00000000
Si      -0.00444717       2.71534752      -2.71529548       0.00000000
