10
Lattice="16.28999089631971 0.0 0.0 0.0 16.28999089631971 0.0 0.0 0.0 34.53561885213415" Properties=species:S:1:pos:R:3:initial_magmoms:R:1 pbc="T T T"
Si      -2.06804808      -0.23962590      -1.15984487       0.00000000
Si      -0.26824743       0.57915837       2.29641272       0.00000000
Si       1.15383699      -1.88317287      -0.99600780       0.00000000
Si       1.92901293       1.55317005      -0.93860957       0.00000000
Si      -1.47264858       2.37412089       1.20004435       0.00000000
Si       2.83398759      -0.46501434      -1.75838202       0.00000000
Si       0.20644317       2.58677055      -2.30224925       0.00000000
Si      -1.19335653      -1.11438261      -3.21126178       0.00000000
Si      -3.69121626      -1.15054641       0.72887464       0.00000000
Si       1.51356906      -3.61489761       0.44454273       0.00000000
