10
Lattice="16.28999089631971 0.0 0.0 0.0 16.28999089631971 0.0 0.0 0.0 34.53561885213415" Properties=species:S:1:pos:R:3:initial_magmoms:R:1 pbc="T T T"
Si       0.35973207      -1.73172474       1.44055054       0.00000000
Si       1.68015060       1.41815853      -0.76237421       0.00000000
Si      -0.67469922      -0.88979238      -2.04350825       0.00000000
Si      -1.15383699       1.88317287       0.99600780       0.00000000
Si      -2.34719352       0.76879026      -2.21525397       0.00000000
Si      -1.95659190      -1.89415233       2.16880354       0.00000000
Si       0.77517594       3.43634292       0.05739823       0.00000000
Si      -3.22188507       1.64354697      -0.16383707       0.00000000
Si      -1.81157832      -2.94993981      -1.74757236       0.00000000
Si       1.78017120      -0.98668530       3.34070135       0.00000000
