10
Lattice="16.28999089631971 0.0 0.0 0.0 16.28999089631971 0.0 0.0 0.0 34.53561885213415" Properties=species:S:1:pos:R:3:initial_magmoms:R:1 pbc="T T T"
Si      -0.32612580      -1.35933534      -1.82617547       0.00000000
Si      -0.20613366       2.26320228      -0.47500317       0.00000000
Si      -2.02603617      -0.37623384       1.17859772       0.00000000
Si       1.95774849      -0.80397666       1.09754258       0.00000000
Si      -1.38517128       2.90910078       1.53182823       0.00000000
Si      -1.30394934      -3.28657266      -0.93094266       0.00000000
Si      -1.27622376      -0.52773084       3.40880563       0.00000000
Si      -3.07423251      -2.14790166       0.08751331       0.00000000
Si       1.33351569      -2.98015776       1.87438723       0.00000000
Si       1.82153151       3.34827918      -0.01744050       0.00000000
