10
Lattice="16.28999089631971 0.0 0.0 0.0 16.28999089631971 0.0 0.0 0.0 34.53561885213415" Properties=species:S:1:pos:R:3:initial_magmoms:R:1 pbc="T T T"
Si      -0.55526094       0.48045726      -2.33968588       0.00000000
Si      -1.91586690      -0.72663174       1.35720020       0.00000000
Si       0.71079786       1.84674096       1.46869160       0.00000000
Si       1.75332528      -1.79334981       0.46020952       0.00000000
Si      -2.11406733       2.25946277      -1.81170504       0.00000000
Si      -1.66114017      -1.61503947      -2.78029155       0.00000000
Si       2.07932076       0.54434277       2.97132340       0.00000000
Si      -2.00345823      -3.03261156      -0.89450756       0.00000000
Si      -0.67222314      -2.17655577       2.97968448       0.00000000
Si       0.65495574      -3.56537601       1.62901639       0.00000000
