10
Lattice="16.28999089631971 0.0 0.0 0.0 16.28999089631971 0.0 0.0 0.0 34.53561885213415" Properties=species:S:1:pos:R:3:initial_magmoms:R:1 pbc="T T T"
Si       1.35685926       1.35775221       1.35718151       0.00000000
Si       1.35715248      -1.35735489      -1.35763047       0.00000000
Si      -1.35738054      -1.35772956       1.35756140       0.00000000
Si      -1.35826020       1.35890554      -1.35690522       0.00000000
Si       0.00193851      -2.71429560       2.71311973       0.00000000
Si       2.71394143      -2.71401867       0.00055257       0.00000000
Si      -0.00156384      -2.71450737      -2.71460477       0.00000000
Si      -0.00014661       2.71575503      -2.71343055       0.00000000
Si      -2.71555929      -2.71458882       0.00003454       0.00000000
Si       2.71512509       2.71510343       0.00006907       0.00000000
