10
Lattice="16.28999089631971 0.0 0.0 0.0 16.28999089631971 0.0 0.0 0.0 34.53561885213415" Properties=species:S:1:pos:R:3:initial_magmoms:R:1 pbc="T T T"
Si       1.43791830       1.32717888      -1.40855124       0.00000000
Si       1.52158374      -1.20122460       1.45398490       0.00000000
Si      -1.18513727       1.52376660       1.46545419       0.00000000
Si      -1.89878588      -0.91979856      -1.42198560       0.00000000
Si      -2.65586363      -2.53834038       0.11464450       0.00000000
Si       0.17479659      -2.54430252       2.84100520       0.00000000
Si      -2.54408165       0.17034453       2.84494226       0.00000000
Si      -2.64206600       2.77312815       0.02834340       0.00000000
Si       2.87549451      -2.59134804      -0.06802485       0.00000000
Si      -3.55845995       0.86447772      -1.26353609       0.00000000
