10
Lattice="16.28999089631971 0.0 0.0 0.0 16.28999089631971 0.0 0.0 0.0 34.53561885213415" Properties=species:S:1:pos:R:3:initial_magmoms:R:1 pbc="T T T"
Si      -0.44851257       0.24772529       2.26729918       0.00000000
Si      -1.80076176      -1.06386962      -1.12227010       0.00000000
Si       1.07542281       1.89985872      -1.02083893       0.00000000
Si       1.81966046      -1.85605232       0.27134651       0.00000000
Si       1.79617517      -0.50893707       2.70244822       0.00000000
Si      -0.36564534      -2.28601058      -2.48186910       0.00000000
Si       2.36065136       0.45480214      -2.44916385       0.00000000
Si       0.80816319      -3.65461493      -0.97639156       0.00000000
Si       3.69132119      -0.91782820      -0.93180605       0.00000000
Si      -3.08581470       0.44307171      -2.45092517       0.00000000
