10
Lattice="16.28999089631971 0.0 0.0 0.0 16.28999089631971 0.0 0.0 0.0 34.53561885213415" Properties=species:S:1:pos:R:3:initial_magmoms:R:1 pbc="T T T"
Si       0.44851257      -0.24772529      -2.26729918       0.00000000
Si      -0.84421296       2.05316065       0.71844488       0.00000000
Si       2.24468774      -0.75666235       0.43514904       0.00000000
Si      -1.88931420      -0.87710573       1.26396982       0.00000000
Si       0.23354973       1.99948510       2.82066371       0.00000000
Si      -0.50756382      -1.51303705       3.23194863       0.00000000
Si       2.26817303      -2.10377761      -1.99595267       0.00000000
Si       3.56513885       1.33270282       0.12722929       0.00000000
Si      -3.26842560       1.19102869       1.59464856       0.00000000
Si      -1.35224919      -1.31159491      -3.38956928       0.00000000
