10
Lattice="16.28999089631971 0.0 0.0 0.0 16.28999089631971 0.0 0.0 0.0 34.53561885213415" Properties=species:S:1:pos:R:3:initial_magmoms:R:1 pbc="T T T"
Si      -1.24155864       1.34094393       1.40511007       0.00000000
Si      -1.68829560      -0.94252311      -1.31022661       0.00000000
Si       0.75707775       1.61854182      -1.53663011       0.00000000
Si       1.46346449      -1.36539522       1.35152112       0.00000000
Si      -0.28092105      -0.40892787      -3.12457875       0.00000000
Si      -2.63114451       2.56334553       0.06039592       0.00000000
Si       2.65586363       2.53834038      -0.11464450       0.00000000
Si      -2.59875999      -0.00824274       2.73098847       0.00000000
Si      -0.90259632       3.40281810      -1.37818060       0.00000000
Si      -2.59499700      -2.76384122      -0.15963063       0.00000000
