10
Lattice="16.28999089631971 0.0 0.0 0.0 16.28999089631971 0.0 0.0 0.0 34.53561885213415" Properties=species:S:1:pos:R:3:initial_magmoms:R:1 pbc="T T T"
Si      -1.35930276       1.35545832       1.35317537       0.00000000
Si       1.35764118       1.35539316      -1.35818304       0.00000000
Si      -1.35720135      -1.36010097      -1.35845933       0.00000000
Si       1.36000323      -1.36273995       1.36039332       0.00000000
Si       0.00605988       2.69987202       2.68442062       0.00000000
Si      -2.71357191       2.71059084      -0.00120875       0.00000000
Si      -2.71036278       0.00193851       2.71577898       0.00000000
Si       2.71518462       2.71204065      -0.00100153       0.00000000
Si       0.00047241       2.71221984      -2.71505373       0.00000000
Si       2.71472850      -0.00229689      -2.71460477       0.00000000
