10
Lattice="16.28999089631971 0.0 0.0 0.0 16.28999089631971 0.0 0.0 0.0 34.53561885213415" Properties=species:S:1:pos:R:3:initial_magmoms:R:1 pbc="T T T"
Si      -0.07240905      -0.74376882       2.20137065       0.00000000
Si      -1.27004985       1.95963813       0.17264366       0.00000000
Si      -1.71004275      -1.37547873      -0.86294199       0.00000000
Si       1.90892736      -0.86224599      -1.16889321       0.00000000
Si       3.49837428       0.51807087      -0.08658084       0.00000000
Si       2.19440376      -2.77724952       0.24592828       0.00000000
Si      -1.94465133       2.23267482      -2.07407228       0.00000000
Si       1.96362122      -1.84534749       2.41611325       0.00000000
Si      -2.19204756      -1.75145193       2.29054166       0.00000000
Si      -2.89794213       1.79709651       1.98213842       0.00000000
