10
Lattice="16.28999089631971 0.0 0.0 0.0 16.28999089631971 0.0 0.0 0.0 34.53561885213415" Properties=species:S:1:pos:R:3:initial_magmoms:R:1 pbc="T T T"
Si      -0.35973207       1.73172474      -1.44055054       0.00000000
Si       0.15842025      -2.21224716      -0.95073158       0.00000000
Si      -2.31632397      -0.16242759       0.72825300       0.00000000
Si       1.42043913       0.74503944       1.90015081       0.00000000
Si      -1.36381509      -1.88543718       2.09690211       0.00000000
Si      -0.30810906      -0.09443313       3.33872733       0.00000000
Si      -1.86274521      -3.00128589      -0.10364145       0.00000000
Si       2.04211440      -3.06670653       0.15375266       0.00000000
Si       3.08011320      -1.03923684       1.74170130       0.00000000
Si      -1.03443129       0.84193236      -3.48405878       0.00000000
