10
Lattice="16.28999089631971 0.0 0.0 0.0 16.28999089631971 0.0 0.0 0.0 34.53561885213415" Properties=species:S:1:pos:R:3:initial_magmoms:R:1 pbc="T T T"
Si       1.45692873      -1.24936155       1.43711079       0.00000000
Si      -1.26372933       1.45503909       1.44244655       0.00000000
Si       1.21720509       1.65485223      -1.33908971       0.00000000
Si      -0.91639395      -1.90865043      -1.29187949       0.00000000
Si      -2.64494214      -2.74812300       0.14669703       0.00000000
Si       2.64206600      -2.77312815      -0.02834340       0.00000000
Si       0.09798435      -2.60278362       2.81659887       0.00000000
Si      -2.61563643       0.11202633       2.81725504       0.00000000
Si      -2.66463675       2.80256418       0.08699527       0.00000000
Si       2.86673605       0.28007397      -2.72417601       0.00000000
