10
Lattice="16.28999089631971 0.0 0.0 0.0 16.28999089631971 0.0 0.0 0.0 34.53561885213415" Properties=species:S:1:pos:R:3:initial_magmoms:R:1 pbc="T T T"
Si      -1.63000998      -1.02289797      -1.26155233       0.00000000
Si      -1.41708339       0.71786772       1.69556169       0.00000000
Si       1.01884176       1.79616798      -1.07951498       0.00000000
Si       1.55984895      -1.92647169       0.08979266       0.00000000
Si       0.51067521       0.95663025       3.16332631       0.00000000
Si       2.39062266       0.38929842      -2.52438247       0.00000000
Si      -0.32281893      -2.35729332      -2.57590964       0.00000000
Si      -2.43988362      -2.73277782       0.07957011       0.00000000
Si      -2.46751146      -1.57035600       2.21117877       0.00000000
Si       3.51202626      -1.17564930      -1.11339444       0.00000000
