10
Lattice="16.28999089631971 0.0 0.0 0.0 16.28999089631971 0.0 0.0 0.0 34.53561885213415" Properties=species:S:1:pos:R:3:initial_magmoms:R:1 pbc="T T T"
Si      -1.01884176      -1.79616798       1.07951498       0.00000000
Si      -1.36243044       1.28388006      -1.45187823       0.00000000
Si       0.67673547       1.80327042       1.40580769       0.00000000
Si       1.37178090      -1.40686956      -1.44486749       0.00000000
Si       2.54355318       2.62259226       0.02900994       0.00000000
Si      -2.80999242       2.48596803       0.06019562       0.00000000
Si      -2.43592515      -1.07830026       2.77507667       0.00000000
Si       0.01262475       2.64655485      -2.82591313       0.00000000
Si      -2.64885174      -2.81906595      -0.18203735       0.00000000
Si      -1.09489977       3.45571173       1.37952607       0.00000000
