10
Lattice="16.28999089631971 0.0 0.0 0.0 16.28999089631971 0.0 0.0 0.0 34.53561885213415" Properties=species:S:1:pos:R:3:initial_magmoms:R:1 pbc="T T T"
Si      -2.30819756      -0.56584944      -0.10322702       0.00000000
Si       1.12282572       0.14700096       2.15457486       0.00000000
Si       0.68960294      -1.97157870      -1.31691295       0.00000000
Si       0.23472424       2.30760882       1.00861331       0.00000000
Si       0.78364511       2.44828926      -1.22767287       0.00000000
Si       2.80110297       1.15193106      -1.51141767       0.00000000
Si       1.86410217      -0.62446086      -2.84659997       0.00000000
Si      -3.00674534       0.57927240       1.77530448       0.00000000
Si       1.58898036      -2.15405928       2.51799338       0.00000000
Si      -3.01640531       1.23375573      -1.71486711       0.00000000
