10
Lattice="16.28999089631971 0.0 0.0 0.0 16.28999089631971 0.0 0.0 0.0 34.53561885213415" Properties=species:S:1:pos:R:3:initial_magmoms:R:1 pbc="T T T"
Si       0.86237631       2.24290494      -0.21584774       0.00000000
Si      -0.68914845      -0.65619378       2.22053793       0.00000000
Si      -1.92775860      -0.23876253      -1.46776462       0.00000000
Si       2.03976864      -1.33628499       0.10270899       0.00000000
Si      -0.51067521      -0.95663025      -3.16332631       0.00000000
Si      -0.90494208       2.94858774       1.40808704       0.00000000
Si      -2.10108420       1.21013523       2.48214539       0.00000000
Si       1.05883371      -3.53758527       0.41663794       0.00000000
Si       2.91703401      -0.88720227       2.24757933       0.00000000
Si      -1.21899699      -3.63498318       0.20745558       0.00000000
