10
Lattice="16.28999089631971 0.0 0.0 0.0 16.28999089631971 0.0 0.0 0.0 34.53561885213415" Properties=species:S:1:pos:R:3:initial_magmoms:R:1 pbc="T T T"
Si      -1.73783349      -0.00628794      -1.55845521       0.00000000
Si      -0.32625612       1.72333539       1.58998624       0.00000000
Si      -0.02871927      -1.69085313       1.70081111       0.00000000
Si       1.86834897      -0.23729643      -1.53141380       0.00000000
Si       2.07645372      -0.98220555       2.34569508       0.00000000
Si       1.76401152       1.38704463       2.65471997       0.00000000
Si      -1.97324028       0.88534521       3.11615063       0.00000000
Si      -2.78658369      -2.13747606      -1.47791810       0.00000000
Si       0.99108360      -0.68637915      -3.67628415       0.00000000
Si      -3.14976924       1.86004107      -1.29684775       0.00000000
