10
Lattice="16.28999089631971 0.0 0.0 0.0 16.28999089631971 0.0 0.0 0.0 34.53561885213415" Properties=species:S:1:pos:R:3:initial_magmoms:R:1 pbc="T T T"
Si       0.92650745      -1.20155040      -1.86071111       0.00000000
Si       1.64568652       0.31159512       1.76456390       0.00000000
Si       1.06223247       2.21143266       0.00991173       0.00000000
Si      -2.23746408       0.52771455      -0.90621515       0.00000000
Si       2.97425168      -0.05654259      -1.67083417       0.00000000
Si      -0.00384444       1.68637338       3.14965020       0.00000000
Si       2.43853874       2.23837632      -1.85946783       0.00000000
Si       3.83063327       0.28709496       0.50860634       0.00000000
Si      -2.05102503       0.45830286      -3.32001450       0.00000000
Si      -3.91761468      -0.89044398      -0.14384093       0.00000000
