10
Lattice="16.28999089631971 0.0 0.0 0.0 16.28999089631971 0.0 0.0 0.0 34.53561885213415" Properties=species:S:1:pos:R:3:initial_magmoms:R:1 pbc="T T T"
Si       0.90497466      -2.01818439      -0.81977244       0.00000000
Si      -1.72256976       1.03360050      -1.36363967       0.00000000
Si       1.43060409       0.70446105       1.85611787       0.00000000
Si      -1.92901293      -1.55317005       0.93860957       0.00000000
Si      -0.77517594      -3.43634292      -0.05739823       0.00000000
Si      -3.05934345       2.23852293       0.25286994       0.00000000
Si       3.31408647       1.75552443       0.87216301       0.00000000
Si      -2.49813666      -0.49137156      -3.04949685       0.00000000
Si      -0.91834875       2.73755079      -2.76595926       0.00000000
Si       1.09141371      -2.08759608      -3.23357180       0.00000000
