10
Lattice="16.28999089631971 0.0 0.0 0.0 16.28999089631971 0.0 0.0 0.0 34.53561885213415" Properties=species:S:1:pos:R:3:initial_magmoms:R:1 pbc="T T T"
Si       1.35678895      -1.35666378       1.35818304       0.00000000
Si      -1.35715248       1.35735489       1.35763047       0.00000000
Si      -1.35871632      -1.35715248      -1.35697429       0.00000000
Si       1.35869993       1.35894088      -1.35676708       0.00000000
Si       2.71510058      -0.00166158      -2.71222181       0.00000000
Si       2.71499470      -2.71420722       0.00044896       0.00000000
Si      -2.71521720      -2.71425609       0.00013814       0.00000000
Si      -2.71453302      -0.00037467       2.71519187       0.00000000
Si       2.71514131       0.00097740       2.71460477       0.00000000
Si      -0.00029322       2.71510710       2.71481198       0.00000000
