10
Lattice="16.28999089631971 0.0 0.0 0.0 16.28999089631971 0.0 0.0 0.0 34.53561885213415" Properties=species:S:1:pos:R:3:initial_magmoms:R:1 pbc="T T T"
Si      -1.64299311       1.59031125       0.51230166       0.00000000
Si      -0.80317845      -1.27241190      -1.84886539       0.00000000
Si       0.07768701      -1.02431520       2.16745665       0.00000000
Si       2.03885640       1.18369656      -0.55398617       0.00000000
Si       2.86729968       1.20399390       1.68575357       0.00000000
Si       0.33221826      -3.33469332      -1.57499778       0.00000000
Si      -0.47500011       3.44403899       1.62206985       0.00000000
Si       2.30492097      -0.67865769       2.99216769       0.00000000
Si      -2.95984413       2.09042144      -1.33739259       0.00000000
Si      -1.45186254       0.14592582       3.58082764       0.00000000
