10
Lattice="16.28999089631971 0.0 0.0 0.0 16.28999089631971 0.0 0.0 0.0 34.53561885213415" Properties=species:S:1:pos:R:3:initial_magmoms:R:1 pbc="T T T"
Si      -2.12122516      -0.82212372      -0.25887914       0.00000000
Si       1.42320843      -1.77218910      -0.50687956       0.00000000
Si       0.72172845       1.78802298      -1.31166354       0.00000000
Si       0.01635516       0.99140940       2.11876140       0.00000000
Si      -3.22417286       0.73748088       1.09336377       0.00000000
Si       2.99605680       1.78996149      -0.56192937       0.00000000
Si      -2.56335856      -0.74648925      -2.52842314       0.00000000
Si       0.66161835      -0.76137831       3.56666803       0.00000000
Si       0.39596103       1.38908088      -3.52798812       0.00000000
Si       3.16172610      -1.96239114       1.01303387       0.00000000
