10
Lattice="16.28999089631971 0.0 0.0 0.0 16.28999089631971 0.0 0.0 0.0 34.53561885213415" Properties=species:S:1:pos:R:3:initial_magmoms:R:1 pbc="T T T"
Si       1.88348238       1.05106338      -0.98395487       0.00000000
Si      -1.07548209       1.35575154       1.63725314       0.00000000
Si      -1.43060409      -0.70446105      -1.85611787       0.00000000
Si       1.70799021      -1.56398661       1.37997503       0.00000000
Si       2.77406712      -1.03892733      -1.75976344       0.00000000
Si      -2.17385163      -0.41627466       2.80606001       0.00000000
Si       0.87019551       2.50509249       2.59025026       0.00000000
Si      -0.52562943      -2.72264544      -2.67589032       0.00000000
Si       2.80052208       2.72603376       0.59318412       0.00000000
Si       1.71183465      -3.25035999      -1.76967517       0.00000000
