10
Lattice="16.28999089631971 0.0 0.0 0.0 16.28999089631971 0.0 0.0 0.0 34.53561885213415" Properties=species:S:1:pos:R:3:initial_magmoms:R:1 pbc="T T T"
Si       2.12122516       0.82212372       0.25887914       0.00000000
Si      -0.44213341       0.07563447      -2.26954400       0.00000000
Si      -1.10294770       1.55960460       1.35224291       0.00000000
Si      -1.07869189      -1.96522560       0.82785378       0.00000000
Si      -3.20812069       0.85095702       0.70735894       0.00000000
Si      -3.16628797      -1.28933721      -0.28101649       0.00000000
Si      -2.27804314      -1.40413284      -2.46753681       0.00000000
Si      -1.31105245       2.30451372      -2.52486597       0.00000000
Si       2.13758032       1.81353312       2.37764054       0.00000000
Si       3.54443359      -0.95006538      -0.24800042       0.00000000
