10
Lattice="16.28999089631971 0.0 0.0 0.0 16.28999089631971 0.0 0.0 0.0 34.53561885213415" Properties=species:S:1:pos:R:3:initial_magmoms:R:1 pbc="T T T"
Si       0.11235050       0.42852474      -2.35280942       0.00000000
Si      -1.42240256      -1.93489362       0.14988467       0.00000000
Si      -0.76514456       2.28623634       0.04254791       0.00000000
Si       2.01661078      -1.07505855       0.77542868       0.00000000
Si      -3.45843283      -0.83331495      -0.06485793       0.00000000
Si       1.28259967       3.43124415       0.23242484       0.00000000
Si      -1.19162002      -2.86679565      -2.02030030       0.00000000
Si       2.32014235       1.08621720      -2.87595527       0.00000000
Si      -1.47709642      -0.95179212      -3.43512178       0.00000000
Si       2.93631160       2.46462813      -1.08448811       0.00000000
