10
Lattice="16.28999089631971 0.0 0.0 0.0 16.28999089631971 0.0 0.0 0.0 34.53561885213415" Properties=species:S:1:pos:R:3:initial_magmoms:R:1 pbc="T T T"
Si      -1.35732841      -1.35713619       1.35704337       0.00000000
Si       1.35785295       1.35764118       1.35659440       0.00000000
Si      -1.35683808       1.35646830      -1.36046239       0.00000000
Si       1.36117611      -1.35687555      -1.36198196       0.00000000
Si      -2.71397805       2.71446786       0.00031082       0.00000000
Si      -2.71443539      -0.00009774       2.71408673       0.00000000
Si       2.71482624       2.71469592      -0.00093246       0.00000000
Si      -0.00004887      -2.71485882       2.71467384       0.00000000
Si       0.00032580       2.71494027       2.71484652       0.00000000
Si       2.71523349       0.00040725       2.71460477       0.00000000
