10
Lattice="16.28999089631971 0.0 0.0 0.0 16.28999089631971 0.0 0.0 0.0 34.53561885213415" Properties=species:S:1:pos:R:3:initial_magmoms:R:1 pbc="T T T"
Si       1.23483087      -1.35975888       1.42487136       0.00000000
Si       1.36625859       1.34154666      -1.36657520       0.00000000
Si      -1.34780202      -1.37225331      -1.36719684       0.00000000
Si      -1.31509170       1.30443804       1.53106845       0.00000000
Si      -0.43012116      -2.39515128       2.82736362       0.00000000
Si      -2.71377228       2.69545743       0.02769758       0.00000000
Si       2.70373275      -2.72015307       0.00929009       0.00000000
Si       0.00814500       2.69773803      -2.72686492       0.00000000
Si       2.73816981       2.69221572       0.01996160       0.00000000
Si      -2.70776615      -0.01661580      -2.72655410       0.00000000
