10
Lattice="16.28999089631971 0.0 0.0 0.0 16.28999089631971 0.0 0.0 0.0 34.53561885213415" Properties=species:S:1:pos:R:3:initial_magmoms:R:1 pbc="T T T"
Si       1.31509170      -1.30443804      -1.53106845       0.00000000
Si      -1.39868058       1.39101939      -1.50337086       0.00000000
Si       1.68386472       1.32571278       1.49563488       0.00000000
Si      -1.13248732      -2.40323112       1.58003998       0.00000000
Si       2.54992257      -2.66419692      -0.10619709       0.00000000
Si       2.72588715       2.84289822      -0.13424003       0.00000000
Si      -0.03271032      -2.67669135      -2.89826529       0.00000000
Si       2.68135029       0.03710862      -2.89764365       0.00000000
Si      -2.74582810       0.03534930      -2.89722922       0.00000000
Si      -0.03419271       2.75333580      -2.89750551       0.00000000
