10
Lattice="16.28999089631971 0.0 0.0 0.0 16.28999089631971 0.0 0.0 0.0 34.53561885213415" Properties=species:S:1:pos:R:3:initial_magmoms:R:1 pbc="T T T"
Si      -0.85638159      -0.34363755      -2.17944052       0.00000000
Si       1.59457923       1.73843622       0.37788895       0.00000000
Si       1.85989446      -1.50061851       0.02089406       0.00000000
Si      -2.18494675       0.02450016       1.25595755       0.00000000
Si      -0.97169850      -1.70152308       2.54323893       0.00000000
Si       0.54069768      -3.04526889       1.15525163       0.00000000
Si      -1.39209453       1.95128136      -2.36807417       0.00000000
Si      -2.76840079       1.92433770      -0.49869461       0.00000000
Si       2.14850439       0.88528005       2.55567176       0.00000000
Si       0.79733034      -1.31025357      -3.49635347       0.00000000
