10
Lattice="16.28999089631971 0.0 0.0 0.0 16.28999089631971 0.0 0.0 0.0 34.53561885213415" Properties=species:S:1:pos:R:3:initial_magmoms:R:1 pbc="T T T"
Si      -1.35600241      -1.35619951       1.35756140       0.00000000
Si       1.36003581      -1.35282260      -1.35763047       0.00000000
Si      -1.35201624       1.36016613      -1.36087682       0.00000000
Si       1.35878148       1.35907470       1.35721604       0.00000000
Si       0.00384444      -2.72402470      -2.68772568       0.00000000
Si      -2.71225971      -2.71254004      -0.00013814       0.00000000
Si      -2.71298702       0.00097740       2.71432848       0.00000000
Si       0.00167787      -2.71309492       2.71457023       0.00000000
Si       2.71578735      -2.71351184      -0.00055257       0.00000000
Si       2.71524978       2.71417464      -0.00024175       0.00000000
