10
Lattice="16.28999089631971 0.0 0.0 0.0 16.28999089631971 0.0 0.0 0.0 34.63643526849801" Properties=species:S:1:pos:R:3:initial_magmoms:R:1 pbc="T T T"
Si       0.48531168      -1.62574200       1.60945214       0.00000000
Si      -1.94178755      -0.65241450      -1.16104860       0.00000000
Si       2.03136300       0.64664784      -1.08429421       0.00000000
Si      -0.32250942       2.17921171       1.04723321       0.00000000
Si       2.11931271       2.06018817       0.83716311       0.00000000
Si      -1.99366305       2.64338060      -0.70540603       0.00000000
Si      -3.42374165       0.79721631      -0.11333048       0.00000000
Si       2.76442929      -1.55874123      -1.60616167       0.00000000
Si       0.24105942      -3.60101853       0.27840782       0.00000000
Si       1.33011108       1.89775242      -2.92930888       0.00000000
