10
Lattice="16.28999089631971 0.0 0.0 0.0 16.28999089631971 0.0 0.0 0.0 34.63643526849801" Properties=species:S:1:pos:R:3:initial_magmoms:R:1 pbc="T T T"
Si       1.36300059       1.33645115      -1.38237554       0.00000000
Si      -1.35159759      -1.37961398      -1.37849626       0.00000000
Si       1.55497824      -1.21183265       1.33443869       0.00000000
Si      -1.45399653       1.35720461       1.45940702       0.00000000
Si       2.71849149       2.69314751       0.00405247       0.00000000
Si      -2.71666701       2.71062668      -0.00367146       0.00000000
Si       0.00777033       2.69674760      -2.74189102       0.00000000
Si       2.71969695      -2.72590737      -0.04419612       0.00000000
Si      -2.71480995      -2.73199983       0.00322119       0.00000000
Si      -2.70809847      -0.01990475      -2.74168320       0.00000000
