10
Lattice="16.28999089631971 0.0 0.0 0.0 16.28999089631971 0.0 0.0 0.0 34.63643526849801" Properties=species:S:1:pos:R:3:initial_magmoms:R:1 pbc="T T T"
Si      -2.11357863       1.00188387      -0.25391985       0.00000000
Si       1.71488088       1.24841836       1.03625345       0.00000000
Si       0.13387122      -1.90645521       1.41559190       0.00000000
Si       1.09724553       0.28706727      -2.13751952       0.00000000
Si      -0.10065591      -0.45599361       3.39700492       0.00000000
Si       1.97416881      -1.87858302      -2.26813359       0.00000000
Si      -1.57770279       2.51760647      -2.21022144       0.00000000
Si       0.92567925       1.71817472       3.17896844       0.00000000
Si      -2.79109765       1.80345287       1.88966105       0.00000000
Si       3.79196991       0.02446106       0.54244152       0.00000000
