10
Lattice="16.28999089631971 0.0 0.0 0.0 16.28999089631971 0.0 0.0 0.0 34.63643526849801" Properties=species:S:1:pos:R:3:initial_magmoms:R:1 pbc="T T T"
Si      -1.23755130      -0.66950271       1.87009146       0.00000000
Si      -0.29207970       2.36799585       0.15312777       0.00000000
Si       2.16981171      -0.27425844       1.02676306       0.00000000
Si      -1.31520573      -0.96674634      -1.83514328       0.00000000
Si       3.48254136       1.00786230      -0.47188706       0.00000000
Si       1.34646624      -3.39305129      -0.53509859       0.00000000
Si       2.21526081       1.32196608       2.79301443       0.00000000
Si       0.75987963       3.08645001       2.23460551       0.00000000
Si       2.43651159      -2.64794602       1.46920913       0.00000000
Si      -3.56560407      -0.44281107       1.60948677       0.00000000
