10
Lattice="16.28999089631971 0.0 0.0 0.0 16.28999089631971 0.0 0.0 0.0 34.63643526849801" Properties=species:S:1:pos:R:3:initial_magmoms:R:1 pbc="T T T"
Si       1.08502803      -1.14843687       1.72299044       0.00000000
Si       0.31478796       2.30897620      -0.27927373       0.00000000
Si      -0.08794971      -1.41354033      -1.92145732       0.00000000
Si      -2.44182213       0.11902354       0.21007010       0.00000000
Si      -2.11931271      -2.06018817      -0.83716311       0.00000000
Si      -2.01326481       2.53566784      -0.53987842       0.00000000
Si       3.30105447      -0.30283926       1.55548854       0.00000000
Si       0.72321084      -3.47684802       1.35993112       0.00000000
Si      -0.78920163      -0.16243575      -3.76647199       0.00000000
Si       0.65075292       3.46812373       1.73525174       0.00000000
