10
Lattice="16.28999089631971 0.0 0.0 0.0 16.28999089631971 0.0 0.0 0.0 34.63643526849801" Properties=species:S:1:pos:R:3:initial_magmoms:R:1 pbc="T T T"
Si      -1.74799845      -0.40125528       1.46408294       0.00000000
Si       2.12820705       0.12872358       0.90293774       0.00000000
Si      -0.33596496      -1.15914753      -2.01452547       0.00000000
Si      -0.16928568       2.34344682      -0.18516649       0.00000000
Si      -3.29263254       0.12202839      -0.27158444       0.00000000
Si       3.11684715       0.83232126      -1.09160250       0.00000000
Si       1.66146597       2.59680519      -1.65001143       0.00000000
Si      -0.03016908       2.78464518       2.15726230       0.00000000
Si      -2.66401773      -0.93245589      -2.27513016       0.00000000
Si      -1.75524750       1.36355445       3.03917571       0.00000000
