10
Lattice="16.28999089631971 0.0 0.0 0.0 16.28999089631971 0.0 0.0 0.0 34.63643526849801" Properties=species:S:1:pos:R:3:initial_magmoms:R:1 pbc="T T T"
Si       1.77849333      -0.85081041       1.29736383       0.00000000
Si       0.68188311       0.66329622      -2.16500498       0.00000000
Si      -0.93123414       1.85570793       1.26794362       0.00000000
Si      -1.79185113      -1.70214210      -0.12351013       0.00000000
Si       0.43745166      -2.20454199       2.65605842       0.00000000
Si       2.77381233       1.51964523      -1.56946578       0.00000000
Si      -2.29068351       0.52615071       2.65276796       0.00000000
Si       3.16317591      -2.18706282      -0.02735587       0.00000000
Si      -0.92277963      -3.52916334       1.27803668       0.00000000
Si      -1.83128922      -2.34129654      -2.56346275       0.00000000
