10
Lattice="16.28999089631971 0.0 0.0 0.0 16.28999089631971 0.0 0.0 0.0 34.63643526849801" Properties=species:S:1:pos:R:3:initial_magmoms:R:1 pbc="T T T"
Si       0.83486250      -0.47301273       2.09107204       0.00000000
Si       0.70032339       2.12094171      -0.55259000       0.00000000
Si      -2.34274635      -0.69585993      -0.17003036       0.00000000
Si       1.62179982       0.22002903      -1.89468334       0.00000000
Si      -1.30702815      -2.35910151      -1.74034330       0.00000000
Si       0.29178648      -1.20503646      -3.25645019       0.00000000
Si      -0.86216454       0.54115380       3.37712360       0.00000000
Si       1.68104655       2.72637585       1.67983341       0.00000000
Si      -2.66251905      -0.66210705       2.38125626       0.00000000
Si      -1.03252536       3.08170962      -1.90424300       0.00000000
