10
Lattice="16.28999089631971 0.0 0.0 0.0 16.28999089631971 0.0 0.0 0.0 34.63643526849801" Properties=species:S:1:pos:R:3:initial_magmoms:R:1 pbc="T T T"
Si      -1.12252761      -1.41058368       1.47769506       0.00000000
Si      -0.33870168       0.27816804      -2.31409617       0.00000000
Si      -0.90067410       2.07521568       0.68652917       0.00000000
Si       2.26253439      -0.37673883       0.57922543       0.00000000
Si       0.54843543       3.51285705      -0.47635516       0.00000000
Si      -0.07056828      -0.69212952       3.55917280       0.00000000
Si       2.63055807       1.41936399       2.15165120       0.00000000
Si       0.23618871       2.60438004      -2.66382045       0.00000000
Si      -2.91317328       2.36651346      -0.47084796       0.00000000
Si      -3.43995930      -0.84799224       1.65472198       0.00000000
