10
Lattice="16.28999089631971 0.0 0.0 0.0 16.28999089631971 0.0 0.0 0.0 34.63643526849801" Properties=species:S:1:pos:R:3:initial_magmoms:R:1 pbc="T T T"
Si      -1.35832536       1.35679410      -1.36176685       0.00000000
Si       1.35873261      -1.35868374      -1.36225176       0.00000000
Si      -1.36055709      -1.36001952       1.37634880       0.00000000
Si       1.34936586       1.37332845       1.39082684       0.00000000
Si       2.71534752       2.71288773       0.00062346       0.00000000
Si       2.71710684      -2.71254564      -0.00536865       0.00000000
Si      -2.71507059      -2.71531494      -0.00252846       0.00000000
Si      -2.71381626       2.71689507      -0.00474519       0.00000000
Si      -2.71466334      -0.00003258      -2.71882314       0.00000000
Si       0.00045612       2.71500543      -2.71896169       0.00000000
