10
Lattice="16.28999089631971 0.0 0.0 0.0 16.28999089631971 0.0 0.0 0.0 34.63643526849801" Properties=species:S:1:pos:R:3:initial_magmoms:R:1 pbc="T T T"
Si       1.34309421       1.35765747       1.36474559       0.00000000
Si      -1.35770634       1.35544203      -1.35733338       0.00000000
Si       1.35549090      -1.36010097      -1.35702166       0.00000000
Si      -1.36259334      -1.35868374       1.36155903       0.00000000
Si       2.71151937       2.71557558       0.00211282       0.00000000
Si      -0.00058644       2.71277370      -2.71442431       0.00000000
Si       2.71427238      -0.00188964      -2.71421649       0.00000000
Si      -2.71538010      -0.00223173      -2.71449359       0.00000000
Si      -2.71862181       2.71187775       0.00218210       0.00000000
Si       2.71381626      -2.71689507       0.00474519       0.00000000
