10
Lattice="16.28999089631971 0.0 0.0 0.0 16.28999089631971 0.0 0.0 0.0 34.63643526849801" Properties=species:S:1:pos:R:3:initial_magmoms:R:1 pbc="T T T"
Si      -2.16294289       0.90354114      -0.44275780       0.00000000
Si       1.76762953       1.40118435       0.77921632       0.00000000
Si       0.67751902      -0.80156900      -2.14358090       0.00000000
Si       0.33011848      -1.76221962       1.57665141       0.00000000
Si       1.02773773       1.93790727       2.94163945       0.00000000
Si       2.79109765      -1.80345287      -1.88966105       0.00000000
Si       2.69044174      -2.25944648       1.50734387       0.00000000
Si      -1.31423533       2.34535275       2.79931826       0.00000000
Si      -2.52016630       2.91970557       0.76214055       0.00000000
Si       3.71677690      -0.08527815       1.28930739       0.00000000
