10
Lattice="16.28999089631971 0.0 0.0 0.0 16.28999089631971 0.0 0.0 0.0 34.63643526849801" Properties=species:S:1:pos:R:3:initial_magmoms:R:1 pbc="T T T"
Si      -1.35097857       1.31411430      -1.41396399       0.00000000
Si      -1.40916645      -1.05008598       1.62261399       0.00000000
Si       1.36487394      -1.40411655      -1.39442903       0.00000000
Si       1.29248118       1.44044325       1.43911005       0.00000000
Si      -2.67219531      -2.62477512       0.11672485       0.00000000
Si      -0.34013520       2.35366065       2.93578589       0.00000000
Si      -2.66507658       2.68504812       0.00360219       0.00000000
Si      -2.46739743       0.96252723       2.76894209       0.00000000
Si       0.01161477       2.67279804      -2.77552302       0.00000000
Si       2.61679302      -2.84630283       0.08690286       0.00000000
