10
Lattice="16.28999089631971 0.0 0.0 0.0 16.28999089631971 0.0 0.0 0.0 34.63643526849801" Properties=species:S:1:pos:R:3:initial_magmoms:R:1 pbc="T T T"
Si       1.63261638      -0.91321740      -1.49667584       0.00000000
Si      -0.98953605       1.69930764      -1.38403809       0.00000000
Si       0.63726480       0.34028181       2.40529395       0.00000000
Si      -2.12726223      -1.39113342      -0.16684380       0.00000000
Si      -1.35423657      -0.42588576       3.46444210       0.00000000
Si      -2.32494138       0.33138747      -2.93218370       0.00000000
Si       0.34013520      -2.35366065      -2.93578589       0.00000000
Si      -1.06903125      -3.40374663      -1.31317190       0.00000000
Si       3.36546513      -1.87398531      -0.14502284       0.00000000
Si      -3.15214758      -1.30686525       2.07995374       0.00000000
