10
Lattice="16.28999089631971 0.0 0.0 0.0 16.28999089631971 0.0 0.0 0.0 34.63643526849801" Properties=species:S:1:pos:R:3:initial_magmoms:R:1 pbc="T T T"
Si      -1.15738821       1.55077542      -1.30742225       0.00000000
Si      -0.53825418      -2.25893430      -0.39911587       0.00000000
Si       2.07137124       0.35469846      -1.19862915       0.00000000
Si      -0.77726106       0.41563935       2.35690683       0.00000000
Si       1.20233232      -3.26643822       0.80141829       0.00000000
Si      -0.91313595       3.52605195       0.02362206       0.00000000
Si      -3.38632447       0.89681337      -1.15997487       0.00000000
Si       2.40298677       2.69224830      -1.28508174       0.00000000
Si       0.90631044      -0.58225347       3.77333000       0.00000000
Si      -3.18171393      -0.09412362       2.38814891       0.00000000
