10
Lattice="16.28999089631971 0.0 0.0 0.0 16.28999089631971 0.0 0.0 0.0 34.63643526849801" Properties=species:S:1:pos:R:3:initial_magmoms:R:1 pbc="T T T"
Si       2.08323036       0.85976991      -0.82763808       0.00000000
Si      -0.70020936       1.81402182       1.45085181       0.00000000
Si       0.94812687      -2.11981770       0.95135950       0.00000000
Si      -1.06660404      -0.50280714      -2.27769326       0.00000000
Si       0.80285265       0.87669522      -2.81445439       0.00000000
Si      -2.05153002       0.45838431       2.96152567       0.00000000
Si       3.04005609      -1.26346869       1.54689870       0.00000000
Si      -2.07234864       3.33940113       0.16403825       0.00000000
Si       3.81951630      -0.82847682      -0.73294202       0.00000000
Si      -0.63146556      -2.74579353      -2.90717618       0.00000000
