10
Lattice="16.28999089631971 0.0 0.0 0.0 16.28999089631971 0.0 0.0 0.0 34.63643526849801" Properties=species:S:1:pos:R:3:initial_magmoms:R:1 pbc="T T T"
Si      -1.35694071      -1.34043894      -1.36865950       0.00000000
Si       1.35786924      -1.35448092       1.35868421       0.00000000
Si      -1.35567009       1.35995436       1.35975794       0.00000000
Si       1.34939844       1.38336309      -1.38615784       0.00000000
Si      -2.71289587      -2.71383255      -0.00034636       0.00000000
Si      -0.00011403      -2.71205694       2.71667568       0.00000000
Si      -2.71395798       0.00263898       2.71608686       0.00000000
Si       2.71663443       0.00288333       2.71587904       0.00000000
Si       2.71995759      -2.71270854      -0.00034636       0.00000000
Si       0.00061902       2.71826343       2.71574050       0.00000000
