10
Lattice="16.28999089631971 0.0 0.0 0.0 16.28999089631971 0.0 0.0 0.0 34.63643526849801" Properties=species:S:1:pos:R:3:initial_magmoms:R:1 pbc="T T T"
Si       1.36967949       1.33294554       1.38674666       0.00000000
Si      -1.34939844      -1.38336309       1.38615784       0.00000000
Si       1.35848826      -1.30831506      -1.51551114       0.00000000
Si      -1.38908088       1.44234918      -1.43587154       0.00000000
Si       2.72008791       2.66670558       0.01081350       0.00000000
Si      -2.71510317       2.69586077       0.02656962       0.00000000
Si      -2.70633915      -2.72380203       0.01749834       0.00000000
Si       2.70192456      -2.73240315       0.00021821       0.00000000
Si       0.01112607       2.69172388       2.74428786       0.00000000
Si      -2.70506853      -0.02340873       2.74591578       0.00000000
