10
Lattice="16.28999089631971 0.0 0.0 0.0 16.28999089631971 0.0 0.0 0.0 34.63643526849801" Properties=species:S:1:pos:R:3:initial_magmoms:R:1 pbc="T T T"
Si       1.28642782      -1.40188777       1.41423415       0.00000000
Si      -1.41565427       1.32950021       1.39809703       0.00000000
Si      -1.74176005      -1.17246460      -1.18913426       0.00000000
Si       1.80300001       0.60946592      -1.66596294       0.00000000
Si      -0.11468975      -2.37843678      -2.68933163       0.00000000
Si       2.61245011      -2.65539936      -0.04820702       0.00000000
Si      -3.53032060       0.59809550      -1.15307355       0.00000000
Si       2.64747361      -0.04610233       2.77153636       0.00000000
Si      -0.06168209       2.66127286       2.77344137       0.00000000
Si      -2.86300075       2.64874586      -0.00720438       0.00000000
