10
Lattice="16.28999089631971 0.0 0.0 0.0 16.28999089631971 0.0 0.0 0.0 34.63643526849801" Properties=species:S:1:pos:R:3:initial_magmoms:R:1 pbc="T T T"
Si       1.09004535       0.74510527       2.00430772       0.00000000
Si       1.01151126      -2.18142648      -0.15718023       0.00000000
Si       1.30544802       1.03269708      -1.82762716       0.00000000
Si      -2.98675521      -0.99896796       0.76300646       0.00000000
Si       0.82334547       3.11879285       1.56186165       0.00000000
Si      -0.60053085      -3.34063917      -1.42158401       0.00000000
Si      -1.34646624       3.39305129       0.53509859       0.00000000
Si       3.43391571       0.04779486      -1.55825946       0.00000000
Si      -2.66167197       2.42630495      -1.30004469       0.00000000
Si      -3.68800713       0.25213662      -1.08200821       0.00000000
