10
Lattice="16.28999089631971 0.0 0.0 0.0 16.28999089631971 0.0 0.0 0.0 34.63643526849801" Properties=species:S:1:pos:R:3:initial_magmoms:R:1 pbc="T T T"
Si      -1.35190710       1.35128808      -1.33122096       0.00000000
Si       1.34846991       1.33960815       1.35184697       0.00000000
Si       1.28943495      -1.32005363      -1.44730850       0.00000000
Si      -1.36922337      -1.37435798       1.34031303       0.00000000
Si      -2.41197885      -0.41466195      -2.47825288       0.00000000
Si      -0.50179716      -2.09647902      -2.83045093       0.00000000
Si       2.68949529       2.69039124      -0.00541021       0.00000000
Si      -0.00985545       2.69671176       2.70301506       0.00000000
Si       2.70342324      -0.01474245       2.70263406       0.00000000
Si      -2.73658968       2.68754049      -0.00650126       0.00000000
