10
Lattice="16.28999089631971 0.0 0.0 0.0 16.28999089631971 0.0 0.0 0.0 34.63643526849801" Properties=species:S:1:pos:R:3:initial_magmoms:R:1 pbc="T T T"
Si      -2.23852293       0.30721311       0.81977561       0.00000000
Si       1.59927075      -1.73306771       0.89022616       0.00000000
Si      -0.92721051      -0.73285615      -2.23588706       0.00000000
Si       1.31123097       1.91964618       1.09437342       0.00000000
Si       1.64656062       1.90957896      -2.20544161       0.00000000
Si       0.54349956      -2.61582281      -2.39216674       0.00000000
Si      -0.13367574       1.06264557      -3.55013269       0.00000000
Si       3.63325644      -0.82857782      -0.03120745       0.00000000
Si       0.82301967      -3.65835023      -0.26583479       0.00000000
Si       0.78045390       1.63817127       3.39246755       0.00000000
