10
Lattice="16.28999089631971 0.0 0.0 0.0 16.28999089631971 0.0 0.0 0.0 34.63643526849801" Properties=species:S:1:pos:R:3:initial_magmoms:R:1 pbc="T T T"
Si      -1.35568638       1.35242838       1.36034676       0.00000000
Si      -1.36485765      -1.37388231      -1.34854612       0.00000000
Si       1.36187658      -1.36471104       1.36097021       0.00000000
Si       1.38233682       1.36503684      -1.35520671       0.00000000
Si       0.01982493      -2.71013472      -2.67326581       0.00000000
Si      -2.70791928       2.70951570       0.00211282       0.00000000
Si       2.71555929       2.71063971       0.00796638       0.00000000
Si       0.00319284       2.71072116       2.71851141       0.00000000
Si      -2.71179630      -0.00478926       2.71861532       0.00000000
Si      -2.70589932      -2.72761389       0.01014848       0.00000000
