10
Lattice="16.28999089631971 0.0 0.0 0.0 16.28999089631971 0.0 0.0 0.0 34.63643526849801" Properties=species:S:1:pos:R:3:initial_magmoms:R:1 pbc="T T T"
Si       1.35832536      -1.35710361      -1.35116809       0.00000000
Si      -1.35900954      -1.35617508       1.35788757       0.00000000
Si       1.35648459       1.36055709       1.35736802       0.00000000
Si      -1.36187658       1.36471104      -1.36097021       0.00000000
Si       0.00985545      -2.69671176      -2.70301506       0.00000000
Si       2.69935074      -0.00632052      -2.70842528       0.00000000
Si       2.71327869      -2.71145421      -0.00038100       0.00000000
Si      -0.00083079      -2.71287144       2.71463213       0.00000000
Si      -2.71816569      -2.71039536       0.00297874       0.00000000
Si       2.71371852       0.00228060       2.71501313       0.00000000
