10
Lattice="16.28999089631971 0.0 0.0 0.0 16.28999089631971 0.0 0.0 0.0 34.63643526849801" Properties=species:S:1:pos:R:3:initial_magmoms:R:1 pbc="T T T"
Si       1.35837423      -1.35386190       1.35688311       0.00000000
Si      -1.35848826      -1.35627282      -1.35702166       0.00000000
Si       1.35702216       1.35839052      -1.35719484       0.00000000
Si      -1.35873261       1.35868374       1.36225176       0.00000000
Si       2.69267184      -0.00340461       2.72672025       0.00000000
Si      -2.71393029      -2.71155195       0.00055418       0.00000000
Si       2.71347417      -2.71524978       0.00045027       0.00000000
Si      -0.00089595      -2.71492398      -2.71407795       0.00000000
Si       2.71459818       0.00180819      -2.71459749       0.00000000
Si      -2.71555929       0.00117288      -2.71432040       0.00000000
