10
Lattice="16.28999089631971 0.0 0.0 0.0 16.28999089631971 0.0 0.0 0.0 34.63643526849801" Properties=species:S:1:pos:R:3:initial_magmoms:R:1 pbc="T T T"
Si      -1.91257632       1.15833303       0.70516358       0.00000000
Si       1.81615581       1.46961864      -0.24862047       0.00000000
Si       0.91323369      -1.10296332       1.89554925       0.00000000
Si      -0.35842887      -1.51138620      -1.80750338       0.00000000
Si      -0.84470166      -0.31842063       3.28426326       0.00000000
Si       3.51979659      -0.25562268      -0.40015496       0.00000000
Si       1.12834314      -0.56340594      -3.39572337       0.00000000
Si      -3.52693161      -0.56435076       1.07431891       0.00000000
Si       0.68048217      -3.40584804       1.39013411       0.00000000
Si      -0.35890128      -3.68326674      -0.69352573       0.00000000
