10
Lattice="16.28999089631971 0.0 0.0 0.0 16.28999089631971 0.0 0.0 0.0 34.63643526849801" Properties=species:S:1:pos:R:3:initial_magmoms:R:1 pbc="T T T"
Si       2.18624832      -0.33720300       0.88610442       0.00000000
Si      -0.21289401       2.09847780      -1.14729792       0.00000000
Si      -1.77720642       0.05550003       1.62050117       0.00000000
Si      -0.36802368      -1.79610282      -1.57242577       0.00000000
Si       1.34760654      -1.28070351      -3.16982442       0.00000000
Si      -2.63055807      -1.41936399      -2.15165120       0.00000000
Si      -2.70112635      -2.11149351       1.40752161       0.00000000
Si       2.47184460      -2.76923484       1.09170641       0.00000000
Si      -3.53123217       0.65585169      -1.46512203       0.00000000
Si       2.78254377       0.49208832      -2.66295454       0.00000000
