10
Lattice="16.28999089631971 0.0 0.0 0.0 16.28999089631971 0.0 0.0 0.0 34.63643526849801" Properties=species:S:1:pos:R:3:initial_magmoms:R:1 pbc="T T T"
Si      -1.01338461      -2.17917846       0.03373591       0.00000000
Si      -1.10791548       1.42561935      -1.60138184       0.00000000
Si       1.95882363      -0.76334940      -1.41216289       0.00000000
Si      -0.47946357       0.94190409       2.33477413       0.00000000
Si       1.33019253      -0.78467301       2.56440507       0.00000000
Si       2.69045640      -2.49624702       0.08530959       0.00000000
Si      -2.29376232      -2.16225315      -1.95308040       0.00000000
Si      -2.88407934       0.07824087      -2.42181554       0.00000000
Si       0.72290133      -3.86742519       0.12843197       0.00000000
Si      -2.21607531       3.26342457      -0.44611754       0.00000000
