10
Lattice="16.28999089631971 0.0 0.0 0.0 16.28999089631971 0.0 0.0 0.0 34.63643526849801" Properties=species:S:1:pos:R:3:initial_magmoms:R:1 pbc="T T T"
Si      -1.35451251       1.35830907      -1.35688311       0.00000000
Si       1.35702545       1.35804843       1.35816466       0.00000000
Si      -1.35791712      -1.35896067       1.35747193       0.00000000
Si       1.35714599      -1.36383138      -1.35916912       0.00000000
Si       0.00745832       2.69619048      -2.71006358       0.00000000
Si       2.71470409       2.71371852       0.00232064       0.00000000
Si      -0.00040212       2.71448415       2.71466677       0.00000000
Si       2.71494844      -2.71446786       0.00017318       0.00000000
Si      -2.71550943       2.71402803       0.00058882       0.00000000
Si       2.71476925      -0.00089595       2.71515168       0.00000000
