10
Lattice="16.28999089631971 0.0 0.0 0.0 16.28999089631971 0.0 0.0 0.0 34.63643526849801" Properties=species:S:1:pos:R:3:initial_magmoms:R:1 pbc="T T T"
Si       2.21169723      -0.48303108       0.38155518       0.00000000
Si      -0.01068624       0.44597133      -2.30242368       0.00000000
Si      -0.22964013       2.17049589       0.88271005       0.00000000
Si      -2.05032456      -0.91935873       0.86241308       0.00000000
Si       2.35835121      -2.70485676      -0.00772393       0.00000000
Si      -1.70557929       2.27320434      -2.24648581       0.00000000
Si      -0.16413804       1.74102633       3.20536142       0.00000000
Si      -0.70555248      -1.48856391      -3.55726780       0.00000000
Si      -1.84410945      -3.28150647       1.17168199       0.00000000
Si       1.74747717       3.37624911       1.31698191       0.00000000
