10
Lattice="16.28999089631971 0.0 0.0 0.0 16.28999089631971 0.0 0.0 0.0 34.63643526849801" Properties=species:S:1:pos:R:3:initial_magmoms:R:1 pbc="T T T"
Si       0.20621511      -2.36214774       0.30926890       0.00000000
Si       2.05032456       0.91935873      -0.86241308       0.00000000
Si      -1.63023804       1.23662277       1.35522056       0.00000000
Si       1.82068443       3.08985462       0.02029696       0.00000000
Si      -0.32456196      -2.64362265       2.60736303       0.00000000
Si      -3.64355172       0.07897392       1.06586762       0.00000000
Si       0.54154476      -2.37221496      -2.99054613       0.00000000
Si      -1.02371247       0.95363289       3.64784213       0.00000000
Si       2.55316428      -2.96161974       0.15818469       0.00000000
Si       0.51038199      -0.83790873       3.87578464       0.00000000
