10
Lattice="16.28999089631971 0.0 0.0 0.0 16.28999089631971 0.0 0.0 0.0 34.63643526849801" Properties=species:S:1:pos:R:3:initial_magmoms:R:1 pbc="T T T"
Si       0.73174680       2.10916404      -0.71711316       0.00000000
Si       0.35722341      -2.01616443      -1.20489835       0.00000000
Si      -2.39513499       0.08746101       0.24751210       0.00000000
Si       1.20593096      -0.57435282       2.03717772       0.00000000
Si      -1.49509620      -3.12012144      -0.27889273       0.00000000
Si       1.93148968       3.07346688       1.05021194       0.00000000
Si      -3.23007894      -1.71825291      -1.02090950       0.00000000
Si      -2.94521571      -0.89953380       2.29837122       0.00000000
Si       2.49780827       1.94429295      -2.22934077       0.00000000
Si       2.52016630      -2.91970557      -0.76214055       0.00000000
