10
Lattice="16.28999089631971 0.0 0.0 0.0 16.28999089631971 0.0 0.0 0.0 34.63643526849801" Properties=species:S:1:pos:R:3:initial_magmoms:R:1 pbc="T T T"
Si      -0.21053196       2.08937169      -1.09302260       0.00000000
Si       2.02502619      -1.21023297      -0.22437495       0.00000000
Si      -1.84208949      -1.23294123      -1.04467011       0.00000000
Si       0.20624769       1.25973828       2.46486142       0.00000000
Si       1.95059718      -0.47340369       2.36395552       0.00000000
Si       0.76447341      -0.38560059      -3.34037432       0.00000000
Si      -0.93916737       1.33964073      -3.18883983       0.00000000
Si      -3.60002484      -0.44839854       0.34404390       0.00000000
Si       1.38017025      -2.53285065      -2.30914316       0.00000000
Si       2.09184777       3.06853101      -0.92829162       0.00000000
