10
Lattice="16.28999089631971 0.0 0.0 0.0 16.28999089631971 0.0 0.0 0.0 34.63643526849801" Properties=species:S:1:pos:R:3:initial_magmoms:R:1 pbc="T T T"
Si      -1.73846880      -0.92036871      -1.26701516       0.00000000
Si       1.31629716      -1.38026799       1.42438263       0.00000000
Si       1.19070126       1.38152232      -1.54728459       0.00000000
Si      -1.39263210       1.36495539       1.40600453       0.00000000
Si       2.59558344       2.57813685       0.04147715       0.00000000
Si      -2.69690724      -2.67664248       0.06045793       0.00000000
Si       2.67981903      -0.01000206       2.79170863       0.00000000
Si       2.62306467      -2.85724971       0.07406313       0.00000000
Si      -0.04121370       2.70800073       2.79894765       0.00000000
Si      -0.04012227      -2.72404638       2.80019457       0.00000000
