10
Lattice="16.28999089631971 0.0 0.0 0.0 16.28999089631971 0.0 0.0 0.0 34.63643526849801" Properties=species:S:1:pos:R:3:initial_magmoms:R:1 pbc="T T T"
Si       1.35728280      -1.35542574       1.35916912       0.00000000
Si       1.35702216       1.35777150      -1.35826857       0.00000000
Si      -1.35817875      -1.35721764      -1.35816466       0.00000000
Si      -1.35858600       1.35596331       1.36190540       0.00000000
Si       2.71435383       0.00521280       2.71064894       0.00000000
Si       2.71440270      -2.71393029      -0.00117764       0.00000000
Si       2.71484253       2.71406061      -0.00010391       0.00000000
Si      -0.00060273      -2.71379997      -2.71556732       0.00000000
Si       2.71467963      -0.00004887      -2.71473604       0.00000000
Si      -0.00081450       2.71538010      -2.71501313       0.00000000
