10
Lattice="16.28999089631971 0.0 0.0 0.0 16.28999089631971 0.0 0.0 0.0 34.63643526849801" Properties=species:S:1:pos:R:3:initial_magmoms:R:1 pbc="T T T"
Si       1.28314701      -1.37015190      -1.40807579       0.00000000
Si       1.68638967       0.94788252       1.36793214       0.00000000
Si      -1.08240534      -1.68888204       1.27299362       0.00000000
Si      -1.43022942       1.34146521      -1.38085154       0.00000000
Si      -0.01433520       1.70631234       2.99293604       0.00000000
Si      -1.21388193      -0.28712754       3.40698022       0.00000000
Si       2.57083893      -2.70984150       0.03709564       0.00000000
Si       0.61248771      -3.51611505       1.21705574       0.00000000
Si       2.61726543       2.72885193       0.15700705       0.00000000
Si       2.63955158      -0.01819593      -2.75924388       0.00000000
