10
Lattice="16.28999089631971 0.0 0.0 0.0 16.28999089631971 0.0 0.0 0.0 34.63643526849801" Properties=species:S:1:pos:R:3:initial_magmoms:R:1 pbc="T T T"
Si      -1.35754344      -1.34602641      -1.37946608       0.00000000
Si       1.35958867       1.36974752      -1.37936217       0.00000000
Si      -1.41545439       1.35896067       1.37797671       0.00000000
Si       1.33519356      -1.31644377       1.53526085       0.00000000
Si       2.71910141      -2.69021205       0.00072737       0.00000000
Si      -2.71230129      -2.70383049      -0.00259773       0.00000000
Si       2.70202134       2.72083792      -0.00031173       0.00000000
Si      -2.71505430       2.72996195      -0.02618516       0.00000000
Si       0.00156384      -2.70659979      -2.74057484       0.00000000
Si      -2.71453302       0.01228266      -2.74196029       0.00000000
