10
Lattice="16.28999089631971 0.0 0.0 0.0 16.28999089631971 0.0 0.0 0.0 34.63643526849801" Properties=species:S:1:pos:R:3:initial_magmoms:R:1 pbc="T T T"
Si      -0.69017472      -1.98021240      -1.03486799       0.00000000
Si      -0.80555679       0.08392608       2.20848962       0.00000000
Si      -1.49522652       1.55079171      -1.01276993       0.00000000
Si       2.34537460       0.05620050       0.44992755       0.00000000
Si      -3.40837299       1.38460113       0.36537996       0.00000000
Si       0.58427343      -2.03611968      -3.07031388       0.00000000
Si       2.48779644      -0.96122403       2.60989149       0.00000000
Si      -2.16663516      -1.88279820       2.44481415       0.00000000
Si      -0.94600917       3.64797350      -0.18246484       0.00000000
Si       1.00584234       0.48840678       3.65760961       0.00000000
