10
Lattice="16.28999089631971 0.0 0.0 0.0 16.28999089631971 0.0 0.0 0.0 34.63643526849801" Properties=species:S:1:pos:R:3:initial_magmoms:R:1 pbc="T T T"
Si       1.29450114      -1.93341123       0.17515655       0.00000000
Si       0.69017472       1.98021240       1.03486799       0.00000000
Si      -2.35326969      -0.43528509       0.04506203       0.00000000
Si       1.27444815      -0.05590728      -2.03544589       0.00000000
Si      -2.26812186      -1.78507449       1.96669253       0.00000000
Si      -0.80505180       3.53100411       0.02209806       0.00000000
Si      -3.03272559       1.10051982       1.73452437       0.00000000
Si       2.13154650      -2.32070598      -2.04240782       0.00000000
Si      -1.47646044       0.09741420       3.47968214       0.00000000
Si      -0.11538207       2.06413848       3.24335761       0.00000000
