10
Lattice="16.28999089631971 0.0 0.0 0.0 16.28999089631971 0.0 0.0 0.0 34.63643526849801" Properties=species:S:1:pos:R:3:initial_magmoms:R:1 pbc="T T T"
Si       2.07912921       1.17579591      -0.04163302       0.00000000
Si      -1.52788797       0.02735091      -1.85048722       0.00000000
Si      -1.27444815       0.05590728       2.03544589       0.00000000
Si       0.85709835      -2.26479870      -0.00696193       0.00000000
Si       0.02005299      -1.87750395       2.21060244       0.00000000
Si       0.17283690      -0.73107891      -3.47549113       0.00000000
Si      -2.72743470      -1.96608897      -1.43644305       0.00000000
Si      -1.12001895      -3.47055192      -0.44123380       0.00000000
Si      -0.58427343       2.03611968       3.07031388       0.00000000
Si       3.02260040       0.49383135      -2.28472446       0.00000000
