10
Lattice="16.28999089631971 0.0 0.0 0.0 16.28999089631971 0.0 0.0 0.0 34.63643526849801" Properties=species:S:1:pos:R:3:initial_magmoms:R:1 pbc="T T T"
Si       0.14665398      -2.22182568      -0.38927911       0.00000000
Si       1.14130346       0.58259556       1.87978967       0.00000000
Si      -2.21169723       0.48303108      -0.38155518       0.00000000
Si       1.73226557       2.80372077       1.12804005       0.00000000
Si      -0.62475801       0.74746665       3.39201727       0.00000000
Si      -2.22238347       0.92900241      -2.68397887       0.00000000
Si      -2.44133736       2.65352697       0.50115486       0.00000000
Si       1.22598214      -2.43284634      -2.53386447       0.00000000
Si      -1.70885751      -3.39794739       0.63904259       0.00000000
Si      -0.46422006       3.85928019       0.93542673       0.00000000
