10
Lattice="16.28999089631971 0.0 0.0 0.0 16.28999089631971 0.0 0.0 0.0 34.63643526849801" Properties=species:S:1:pos:R:3:initial_magmoms:R:1 pbc="T T T"
Si      -1.98699556      -1.02156219       0.61278816       0.00000000
Si       1.74058650      -1.00750392       1.20053415       0.00000000
Si       0.53825418       2.25893430       0.39911587       0.00000000
Si       0.20194713      -0.91000827      -2.16876161       0.00000000
Si       3.57133815      -0.75414555      -0.26431079       0.00000000
Si      -1.38276036      -3.22892235       1.11411620       0.00000000
Si       2.51937882      -1.47259971      -2.34578853       0.00000000
Si       2.60962542       2.61363276      -0.79951328       0.00000000
Si      -0.23900688       2.67457365       2.75602269       0.00000000
Si      -2.98986171      -0.13032000       2.49673420       0.00000000
