10
Lattice="16.28999089631971 0.0 0.0 0.0 16.28999089631971 0.0 0.0 0.0 34.63643526849801" Properties=species:S:1:pos:R:3:initial_magmoms:R:1 pbc="T T T"
Si      -1.01736914       0.72511677      -2.02332313       0.00000000
Si       2.12711725      -1.13195952      -0.09518098       0.00000000
Si      -1.92118300      -1.07329923       1.01138448       0.00000000
Si       0.15203620       2.29359942       1.27905500       0.00000000
Si      -0.67096718       3.02024745      -1.73279255       0.00000000
Si      -2.56603894      -2.39591691      -1.07338373       0.00000000
Si      -1.85436142       3.20546475       0.30746781       0.00000000
Si      -3.18173578      -0.24866685      -2.10461489       0.00000000
Si      -0.01450299      -0.16612542      -3.90726917       0.00000000
Si       2.13436630      -2.89676925      -1.67027375       0.00000000
