10
Lattice="16.28999089631971 0.0 0.0 0.0 16.28999089631971 0.0 0.0 0.0 34.63643526849801" Properties=species:S:1:pos:R:3:initial_magmoms:R:1 pbc="T T T"
Si      -0.82199992      -1.88678925       1.22778819       0.00000000
Si      -0.36427698      -0.30872808      -2.38316753       0.00000000
Si       1.91581803       0.89098155       1.22938494       0.00000000
Si      -1.87591568       1.91032830       0.14890524       0.00000000
Si       0.01231524       2.45806326      -2.40131704       0.00000000
Si      -2.11443638      -0.49280508       2.68131740       0.00000000
Si       0.59212521       2.25434052       2.66393337       0.00000000
Si      -3.53430188       0.74999160       1.31196863       0.00000000
Si      -2.51192519      -2.93879745      -0.06250758       0.00000000
Si      -0.79907011       3.66279021       1.27082745       0.00000000
