10
Lattice="16.28999089631971 0.0 0.0 0.0 16.28999089631971 0.0 0.0 0.0 34.63643526849801" Properties=species:S:1:pos:R:3:initial_magmoms:R:1 pbc="T T T"
Si      -1.35558864      -1.35596331      -1.35896130       0.00000000
Si       1.35097857      -1.31411430       1.41396399       0.00000000
Si       1.36259334       1.35868374      -1.36155903       0.00000000
Si      -1.31409801       1.37093382       1.41756618       0.00000000
Si       2.70568755       2.71634121       0.00318655       0.00000000
Si      -2.71018848       0.00055386      -2.71871923       0.00000000
Si      -2.71737074      -2.71412577       0.02417625       0.00000000
Si       0.00488700       2.71412577      -2.71889242       0.00000000
Si       2.71585251      -2.71823085       0.01953496       0.00000000
Si       0.00516393      -2.71669959      -2.71875387       0.00000000
