10
Lattice="16.28999089631971 0.0 0.0 0.0 16.28999089631971 0.0 0.0 0.0 34.63643526849801" Properties=species:S:1:pos:R:3:initial_magmoms:R:1 pbc="T T T"
Si      -1.35640457      -1.35195597       1.35116809       0.00000000
Si      -1.35591587       1.35689184      -1.35958475       0.00000000
Si       1.35870090      -1.35532800      -1.36010430       0.00000000
Si       1.36162169       1.37327958       1.38171745       0.00000000
Si      -2.63955158       0.01819593       2.75924388       0.00000000
Si       2.71330073      -2.71184517      -0.00034636       0.00000000
Si      -2.71347560      -2.71259451      -0.00031173       0.00000000
Si       2.71286090       2.71467963      -0.00076200       0.00000000
Si       0.00102898      -2.71388142      -2.71747232       0.00000000
Si      -2.71373624       0.00060273      -2.71774941       0.00000000
