10
Lattice="16.28999089631971 0.0 0.0 0.0 16.28999089631971 0.0 0.0 0.0 34.63643526849801" Properties=species:S:1:pos:R:3:initial_magmoms:R:1 pbc="T T T"
Si      -1.02488535       0.08426817       2.24679754       0.00000000
Si       1.05823098      -2.01261321      -1.14632810       0.00000000
Si       2.12726223       1.39113342       0.16684380       0.00000000
Si      -1.94767150       0.80905914      -1.49387029       0.00000000
Si      -0.19767915       1.72252089      -2.76533990       0.00000000
Si       1.13772618       3.09044106      -1.21719429       0.00000000
Si       2.46739743      -0.96252723      -2.76894209       0.00000000
Si       0.77302566       0.96524766       3.63128590       0.00000000
Si      -3.22137098       1.13982759       2.05418421       0.00000000
Si       3.75987861       0.47791602      -1.32983204       0.00000000
