10
Lattice="16.28999089631971 0.0 0.0 0.0 16.28999089631971 0.0 0.0 0.0 34.63643526849801" Properties=species:S:1:pos:R:3:initial_magmoms:R:1 pbc="T T T"
Si      -1.74999235      -0.91346175       1.27146961       0.00000000
Si       1.31409801      -1.37093382      -1.41756618       0.00000000
Si      -1.39316967       1.35822762      -1.39446366       0.00000000
Si       1.33540533       1.36792017       1.54814561       0.00000000
Si       0.19767915      -1.72252089       2.76533990       0.00000000
Si      -0.85818978       2.17593675       2.54176159       0.00000000
Si       2.32494138      -0.33138747       2.93218370       0.00000000
Si       2.66507658      -2.68504812      -0.00360219       0.00000000
Si       2.68809435       2.71016730       0.01437413       0.00000000
Si       2.67669135      -0.01225008      -2.77912521       0.00000000
