10
Lattice="16.28999089631971 0.0 0.0 0.0 16.28999089631971 0.0 0.0 0.0 34.63643526849801" Properties=species:S:1:pos:R:3:initial_magmoms:R:1 pbc="T T T"
Si      -0.50865525       2.16775917       0.90969184       0.00000000
Si       1.68357150      -0.99789282       1.41642318       0.00000000
Si      -2.40445287      -0.50976297       0.03124208       0.00000000
Si       0.77726106      -0.41563935      -2.35690683       0.00000000
Si      -1.20485727       1.53038034       3.02494013       0.00000000
Si      -1.58144949      -1.23641100       3.04308963       0.00000000
Si      -1.90387909       3.02930469      -0.70956241       0.00000000
Si       3.55302819       0.38160954       0.87966204       0.00000000
Si      -3.27854739       1.15186590      -1.38525037       0.00000000
Si       0.23900688      -2.67457365      -2.75602269       0.00000000
