10
Lattice="16.28999089631971 0.0 0.0 0.0 16.28999089631971 0.0 0.0 0.0 34.63643526849801" Properties=species:S:1:pos:R:3:initial_magmoms:R:1 pbc="T T T"
Si      -2.00639762       0.91186533      -0.97158719       0.00000000
Si       0.36427698       0.30872808       2.38316753       0.00000000
Si      -0.15203620      -2.29359942      -1.27905500       0.00000000
Si       0.37659222       2.76679134      -0.01814950       0.00000000
Si      -0.82300338       0.72664803      -3.01184755       0.00000000
Si      -1.98676817       2.87907831       0.34314336       0.00000000
Si       1.58144949       1.23641100      -3.04308963       0.00000000
Si       3.26502099       0.23851818      -1.62666646       0.00000000
Si      -1.51163870       2.21905638       2.53207277       0.00000000
Si      -1.16940534      -1.56848265      -3.30237813       0.00000000
