10
Lattice="16.28999089631971 0.0 0.0 0.0 16.28999089631971 0.0 0.0 0.0 34.63643526849801" Properties=species:S:1:pos:R:3:initial_magmoms:R:1 pbc="T T T"
Si      -1.38808719      -1.29321423      -1.35815569       0.00000000
Si      -1.32602229       1.25351159       1.46244117       0.00000000
Si       1.04383062       1.56465843      -1.45281712       0.00000000
Si       1.38908088      -1.44234918       1.43587154       0.00000000
Si       2.68633503       2.54375259       0.12136267       0.00000000
Si      -2.61245011       2.65539936       0.04820702       0.00000000
Si      -0.80945010       3.26486528      -1.61775592       0.00000000
Si      -2.72713985       0.27696258      -2.64112461       0.00000000
Si      -0.89915913       1.66344750      -3.31570420       0.00000000
Si      -0.01438407      -2.64849336      -2.77866597       0.00000000
