10
Lattice="16.28999089631971 0.0 0.0 0.0 16.28999089631971 0.0 0.0 0.0 34.46413024517268" Properties=species:S:1:pos:R:3:initial_magmoms:R:1 pbc="T T T"
Si      -1.77616875      -0.94874589       1.16071809       0.00000000
Si      -0.27605034       2.24657019       0.69217798       0.00000000
Si       2.01432366      -1.24524018       0.40908945       0.00000000
Si      -0.61844985      -0.06462243      -2.33184436       0.00000000
Si       2.07783837      -2.09784249      -1.77621334       0.00000000
Si      -1.00580650      -0.17475912       3.38689536       0.00000000
Si      -3.50017433       0.47167695       0.34067812       0.00000000
Si       1.45943739      -0.42383322      -3.31882867       0.00000000
Si      -2.59023122       2.60755889      -0.13430679       0.00000000
Si      -0.02746494       2.24960013       3.00927168       0.00000000
