10
Lattice="16.28999089631971 0.0 0.0 0.0 16.28999089631971 0.0 0.0 0.0 34.46413024517268" Properties=species:S:1:pos:R:3:initial_magmoms:R:1 pbc="T T T"
Si      -1.58219557       0.33803379      -1.75108897       0.00000000
Si       1.04881536       1.64116863       1.56518388       0.00000000
Si       1.80636552      -1.08734121      -1.34179273       0.00000000
Si      -1.57544988      -1.18426671       1.58706861       0.00000000
Si      -0.60385401       2.76239304      -2.12871266       0.00000000
Si       2.61645093      -2.64412764       0.27488606       0.00000000
Si      -2.70943914       2.37454443      -1.38177115       0.00000000
Si      -2.49999861      -3.04777755       0.12920610       0.00000000
Si       2.41381962       0.29251953       3.12648567       0.00000000
Si      -0.29235663      -2.41955370       3.15043825       0.00000000
