10
Lattice="16.28999089631971 0.0 0.0 0.0 16.28999089631971 0.0 0.0 0.0 34.46413024517268" Properties=species:S:1:pos:R:3:initial_magmoms:R:1 pbc="T T T"
Si       1.29249747      -1.35803134       1.44349644       0.00000000
Si       1.58475636       1.01895905      -1.47552539       0.00000000
Si      -1.35283563      -1.22934098      -1.56561468       0.00000000
Si      -1.40243868       1.35581996       1.44496461       0.00000000
Si       0.36362538      -1.81601313      -3.27441614       0.00000000
Si       0.26977869       2.40357647      -2.88386840       0.00000000
Si       2.70384678       2.62411049      -0.06966239       0.00000000
Si       2.53658106      -2.86424205       0.03067999       0.00000000
Si      -2.75973777       2.67511448       0.04874265       0.00000000
Si       2.65675239       0.00881941       2.81417357       0.00000000
