10
Lattice="16.28999089631971 0.0 0.0 0.0 16.28999089631971 0.0 0.0 0.0 34.46413024517268" Properties=species:S:1:pos:R:3:initial_magmoms:R:1 pbc="T T T"
Si       0.08472429      -0.49761063      -2.31892030       0.00000000
Si       2.23601427       0.19922670       0.84440613       0.00000000
Si      -1.10136690       2.15458056       0.11035421       0.00000000
Si      -0.64154907      -2.12590106       1.04919210       0.00000000
Si      -0.59311890      -3.52584737      -0.89751538       0.00000000
Si      -2.16916011       2.03095575       2.27518529       0.00000000
Si       2.27017440      -0.88491515       2.94299712       0.00000000
Si       1.12744719      -2.68674947      -2.51698577       0.00000000
Si      -1.97446203      -1.02988149      -3.25400160       0.00000000
Si       0.38981970       3.88011510      -0.78226727       0.00000000
