10
Lattice="16.28999089631971 0.0 0.0 0.0 16.28999089631971 0.0 0.0 0.0 34.46413024517268" Properties=species:S:1:pos:R:3:initial_magmoms:R:1 pbc="T T T"
Si      -1.20580209       0.41674707      -2.02931805       0.00000000
Si       2.28633408      -0.77476869       0.00189553       0.00000000
Si       0.17790309       1.81280007       1.61726468       0.00000000
Si      -1.20479211      -1.46693079       1.55877902       0.00000000
Si       2.24380089      -1.36067112       2.24537380       0.00000000
Si      -2.41810389       2.18797506      -1.21634323       0.00000000
Si       1.70469963       0.78830568       3.11972928       0.00000000
Si      -2.01168468       1.79344755       2.50947258       0.00000000
Si       0.48839049      -2.97204860       2.26880943       0.00000000
Si      -3.49591545       1.45539747       0.75314506       0.00000000
