10
Lattice="16.28999089631971 0.0 0.0 0.0 16.28999089631971 0.0 0.0 0.0 34.46413024517268" Properties=species:S:1:pos:R:3:initial_magmoms:R:1 pbc="T T T"
Si      -1.35570267       1.35630540      -1.35899034       0.00000000
Si      -1.35646830      -1.35780408       1.35702589       0.00000000
Si       1.35842310       1.35764118       1.35692249       0.00000000
Si       1.35912357      -1.35809730      -1.36064462       0.00000000
Si      -2.71371852      -2.71352304      -0.00086160       0.00000000
Si      -2.71432125       2.71422351      -0.00117178       0.00000000
Si      -2.71432125      -0.00042354       2.71443088       0.00000000
Si       0.00188964       2.71518462       2.71401731       0.00000000
Si       0.00026064      -2.71463076       2.71494784       0.00000000
Si       2.71573848       2.71435383      -0.00017232       0.00000000
