10
Lattice="16.28999089631971 0.0 0.0 0.0 16.28999089631971 0.0 0.0 0.0 34.46413024517268" Properties=species:S:1:pos:R:3:initial_magmoms:R:1 pbc="T T T"
Si      -1.46608764       1.08116241      -1.46245172       0.00000000
Si       1.83311696       1.51853262       0.28457048       0.00000000
Si      -0.67864533      -0.57763037       2.29224505       0.00000000
Si       0.30173315      -1.88232157      -1.73340886       0.00000000
Si       0.80103957       3.65581320       0.71158129       0.00000000
Si      -1.23193518       1.39410960       3.53133461       0.00000000
Si       1.10798390      -1.72248409       3.43555874       0.00000000
Si       3.21556781       1.58116767      -1.79823593       0.00000000
Si      -3.09538086      -0.07122314      -2.58308801       0.00000000
Si      -1.35088476      -3.56315635      -1.42702257       0.00000000
