10
Lattice="16.28999089631971 0.0 0.0 0.0 16.28999089631971 0.0 0.0 0.0 34.46413024517268" Properties=species:S:1:pos:R:3:initial_magmoms:R:1 pbc="T T T"
Si      -0.49982607       1.61002215       1.71648697       0.00000000
Si       1.24398585       1.50449553      -1.56246668       0.00000000
Si      -1.62684972      -1.29424050      -1.51642258       0.00000000
Si       0.81021573      -1.59884721       1.92592560       0.00000000
Si      -2.49896745       0.75658905       2.65391183       0.00000000
Si       2.10564540       3.31750737      -0.21922646       0.00000000
Si      -1.41346701       3.63548817       0.74694151       0.00000000
Si       2.50453863      -0.01091430      -3.11256073       0.00000000
Si      -1.23255027      -2.84410042       2.60679934       0.00000000
Si      -0.20626398       2.68335396      -3.12003945       0.00000000
