10
Lattice="16.28999089631971 0.0 0.0 0.0 16.28999089631971 0.0 0.0 0.0 34.46413024517268" Properties=species:S:1:pos:R:3:initial_magmoms:R:1 pbc="T T T"
Si      -0.80409069      -0.30437865      -2.15811058       0.00000000
Si       0.96534540      -2.12447664       0.45485785       0.00000000
Si       1.86774624       1.48783086      -0.01557780       0.00000000
Si      -1.65278340       0.96104484       1.44511625       0.00000000
Si       2.63590119      -1.52897940       2.02855984       0.00000000
Si      -1.73294649       1.79098776      -2.70309217       0.00000000
Si       1.88071308      -2.69260668      -1.74757363       0.00000000
Si       1.47466854       0.05491359       3.43338750       0.00000000
Si      -2.41481331      -2.06288415      -1.97903486       0.00000000
Si      -0.78276708       0.76830156       3.59292205       0.00000000
