10
Lattice="16.28999089631971 0.0 0.0 0.0 16.28999089631971 0.0 0.0 0.0 34.46413024517268" Properties=species:S:1:pos:R:3:initial_magmoms:R:1 pbc="T T T"
Si       1.35726651       1.35738054      -1.35657785       0.00000000
Si      -1.35679410       1.35689184       1.35778410       0.00000000
Si       1.35902583      -1.35786924       1.35702589       0.00000000
Si      -1.35718506      -1.35883035      -1.35816320       0.00000000
Si       2.71485882       0.00050499       2.71339695       0.00000000
Si      -2.71444505       2.71428867      -0.00006893       0.00000000
Si       0.00169416      -2.71489140       2.71405177       0.00000000
Si      -0.00231318       2.71464705      -2.71443088       0.00000000
Si      -2.71410459       0.00006516       2.71529248       0.00000000
Si       0.00218286       2.71583622       2.71398285       0.00000000
