10
Lattice="16.28999089631971 0.0 0.0 0.0 16.28999089631971 0.0 0.0 0.0 34.46413024517268" Properties=species:S:1:pos:R:3:initial_magmoms:R:1 pbc="T T T"
Si      -0.35247976       2.31410853      -0.24645313       0.00000000
Si       0.68573081      -0.46550304       2.21497642       0.00000000
Si      -1.86758727      -1.13417496      -0.93297899       0.00000000
Si       2.06946857      -0.52864308      -1.16754199       0.00000000
Si       1.99929125       1.46096865       2.11279022       0.00000000
Si       2.05440032      -2.72499120      -0.38344813       0.00000000
Si       1.52020235       0.87089598      -2.98835194       0.00000000
Si       1.51500584       2.72635956      -1.55009405       0.00000000
Si       0.29782355       3.02575347       1.87347117       0.00000000
Si       2.23878683      -2.22411931       1.93978019       0.00000000
