10
Lattice="16.28999089631971 0.0 0.0 0.0 16.28999089631971 0.0 0.0 0.0 34.46413024517268" Properties=species:S:1:pos:R:3:initial_magmoms:R:1 pbc="T T T"
Si       1.04580171       1.65452058       1.47889112       0.00000000
Si       1.67410701      -1.25846766      -1.29519720       0.00000000
Si      -1.67361831      -1.38548079       1.23509173       0.00000000
Si      -1.27088064       2.39190047      -1.21007075       0.00000000
Si      -0.94649787       2.95423127       1.28561617       0.00000000
Si      -2.09202696       0.57141966      -2.62527212       0.00000000
Si       1.43009910      -3.38685390      -0.02167795       0.00000000
Si       0.52163838      -2.45726505      -2.92831539       0.00000000
Si       1.75681134      -2.65341294       2.21228822       0.00000000
Si      -0.31835547      -2.17194570       3.19665326       0.00000000
