10
Lattice="16.28999089631971 0.0 0.0 0.0 16.28999089631971 0.0 0.0 0.0 34.46413024517268" Properties=species:S:1:pos:R:3:initial_magmoms:R:1 pbc="T T T"
Si      -1.59355296      -1.50125382       0.79202062       0.00000000
Si       0.78198516       1.41889158       1.68488334       0.00000000
Si       2.07516681      -0.48146724      -0.98436504       0.00000000
Si      -1.35526284       0.78646491      -1.96156153       0.00000000
Si      -2.97955829      -1.60796961      -1.06156473       0.00000000
Si       1.34550513       3.39124798       0.58826857       0.00000000
Si      -2.62785393      -0.47965905       2.67500389       0.00000000
Si       2.83138119      -2.57929344      -0.21901967       0.00000000
Si       1.74845457      -1.21490820      -3.21833121       0.00000000
Si      -0.66925836      -3.52197945       1.45841941       0.00000000
