10
Lattice="16.28999089631971 0.0 0.0 0.0 16.28999089631971 0.0 0.0 0.0 34.46413024517268" Properties=species:S:1:pos:R:3:initial_magmoms:R:1 pbc="T T T"
Si      -2.07516681       0.48146724       0.98436504       0.00000000
Si       0.75621438      -2.09782620       0.76534537       0.00000000
Si      -0.32671224      -0.73344096      -2.23396617       0.00000000
Si       1.80341703       1.60560756       0.06475814       0.00000000
Si       1.10405475      -2.53788426      -1.59458727       0.00000000
Si      -1.29318165       1.90035882       2.66924838       0.00000000
Si       3.73826178       0.25169679      -0.36080518       0.00000000
Si      -0.08270433       1.39494528      -3.50748542       0.00000000
Si      -3.43042965       1.26793215      -0.97719650       0.00000000
Si       1.89902304      -1.77888429       2.83364237       0.00000000
