10
Lattice="16.28999089631971 0.0 0.0 0.0 16.28999089631971 0.0 0.0 0.0 34.46413024517268" Properties=species:S:1:pos:R:3:initial_magmoms:R:1 pbc="T T T"
Si       1.35695700       1.35738706      -1.35730160       0.00000000
Si      -1.35832536      -1.35777700      -1.35740499       0.00000000
Si       1.35892809      -1.35829356       1.36105819       0.00000000
Si      -1.36010097       1.36061248       1.36384979       0.00000000
Si       2.71451673       2.71418116      -0.00010339       0.00000000
Si       2.71409319      -0.00042354      -2.71491338       0.00000000
Si      -0.00026064       2.71437664      -2.71501677       0.00000000
Si      -0.00073305      -2.71497352      -2.71453427       0.00000000
Si      -2.71580364      -0.00027367      -2.71498231       0.00000000
Si       2.71448415      -2.71666768      -0.00058589       0.00000000
