10
Lattice="16.28999089631971 0.0 0.0 0.0 16.28999089631971 0.0 0.0 0.0 34.46413024517268" Properties=species:S:1:pos:R:3:initial_magmoms:R:1 pbc="T T T"
Si       0.48791808      -0.24310056      -2.25750519       0.00000000
Si      -1.67441652       1.67769733       0.13913177       0.00000000
Si       2.14086438       1.17213718       0.27230125       0.00000000
Si      -1.20275586      -2.26988185       1.61816075       0.00000000
Si       1.57620411       1.32576817       2.51671005       0.00000000
Si      -0.69198291       2.10164458       2.54310959       0.00000000
Si       2.34698175      -1.93411237      -2.17417087       0.00000000
Si      -3.71718252       0.43244411       0.82000551       0.00000000
Si       0.73208889      -3.62379262       1.19259743       0.00000000
Si      -1.46658870      -0.99921298      -3.49459583       0.00000000
