10
Lattice="16.28999089631971 0.0 0.0 0.0 16.28999089631971 0.0 0.0 0.0 34.46413024517268" Properties=species:S:1:pos:R:3:initial_magmoms:R:1 pbc="T T T"
Si      -0.48791808       0.24310056       2.25750519       0.00000000
Si      -1.95450678      -0.75611242      -1.23709065       0.00000000
Si       1.85906367      -1.69101181       0.08333431       0.00000000
Si       0.89612919       2.00519637      -1.28299689       0.00000000
Si       1.65294630       1.41523773       2.52980643       0.00000000
Si      -0.48159756      -1.95846103      -2.65997752       0.00000000
Si       2.26730736       0.76861921      -2.68496403       0.00000000
Si       0.88488909      -3.39113395      -1.24167438       0.00000000
Si      -2.16233460       1.92079788       2.39663696       0.00000000
Si       3.53564676      -0.66731563      -1.30026343       0.00000000
