10
Lattice="16.28999089631971 0.0 0.0 0.0 16.28999089631971 0.0 0.0 0.0 34.46413024517268" Properties=species:S:1:pos:R:3:initial_magmoms:R:1 pbc="T T T"
Si      -2.08539693       0.77882164      -0.70527436       0.00000000
Si       0.80514954      -1.72266165      -1.40406945       0.00000000
Si       1.73938104       1.62691162      -0.45234196       0.00000000
Si      -1.43135343      -0.68423213       2.10910256       0.00000000
Si       2.41869033      -2.87638461      -0.02739900       0.00000000
Si      -0.93235815      -3.37407669      -1.40176035       0.00000000
Si       3.45616785      -1.15760291       1.19893883       0.00000000
Si      -2.04286374       1.36472407      -2.94875263       0.00000000
Si       3.83135913       0.37513915      -0.59716032       0.00000000
Si       1.19861820      -0.73945034      -3.65344110       0.00000000
