10
Lattice="16.28999089631971 0.0 0.0 0.0 16.28999089631971 0.0 0.0 0.0 34.46413024517268" Properties=species:S:1:pos:R:3:initial_magmoms:R:1 pbc="T T T"
Si       1.35726651       1.35738054       1.35737053       0.00000000
Si      -1.35729909       1.35736425      -1.35778410       0.00000000
Si      -1.35855342      -1.35788553       1.35685357       0.00000000
Si       1.35796698      -1.35814617      -1.35809428       0.00000000
Si      -2.71383255       2.71490769      -0.00068928       0.00000000
Si       0.00001629       2.71407690      -2.71487891       0.00000000
Si       2.71406061       0.00084708      -2.71494784       0.00000000
Si       2.71480995       2.71520091      -0.00058589       0.00000000
Si       2.71518462      -2.71513575      -0.00037911       0.00000000
Si      -2.71546155      -2.71490769       0.00024125       0.00000000
