10
Lattice="16.28999089631971 0.0 0.0 0.0 16.28999089631971 0.0 0.0 0.0 34.46413024517268" Properties=species:S:1:pos:R:3:initial_magmoms:R:1 pbc="T T T"
Si       1.96452513      -1.24221024       0.58244413       0.00000000
Si       1.04697459       1.98316089       0.88459133       0.00000000
Si      -1.79061309      -1.03330728       1.29612773       0.00000000
Si      -0.74388285      -0.17383059      -2.37385615       0.00000000
Si      -2.45884518       1.53745020      -2.25581644       0.00000000
Si       3.13202943       2.21980572      -0.24872777       0.00000000
Si      -0.07599285       3.84737220      -0.30697218       0.00000000
Si       1.04710491       1.70228871       3.30297516       0.00000000
Si      -3.34935432      -1.88131581      -0.43814273       0.00000000
Si      -2.26701414       3.10873473      -0.40902053       0.00000000
