10
Lattice="16.28999089631971 0.0 0.0 0.0 16.28999089631971 0.0 0.0 0.0 34.46413024517268" Properties=species:S:1:pos:R:3:initial_magmoms:R:1 pbc="T T T"
Si       2.23862067      -0.27981333      -0.52733595       0.00000000
Si      -0.76784544       2.06975853      -0.77899317       0.00000000
Si       0.04284270       0.19572435       2.35962246       0.00000000
Si      -0.59220666      -2.20662711      -0.72602177       0.00000000
Si      -1.50524487      -1.56641382       2.73597097       0.00000000
Si       2.94599763      -1.61567478       1.31360106       0.00000000
Si      -0.55804653      -3.29076896       1.37256922       0.00000000
Si       1.35264015       3.17226573      -1.24963560       0.00000000
Si      -2.43840123       1.47426129      -2.35269517       0.00000000
Si       3.24819342       1.82123829      -0.72109340       0.00000000
