10
Lattice="16.28999089631971 0.0 0.0 0.0 16.28999089631971 0.0 0.0 0.0 34.46413024517268" Properties=species:S:1:pos:R:3:initial_magmoms:R:1 pbc="T T T"
Si      -1.35731538      -1.35671265       1.35709482       0.00000000
Si      -1.35441576       1.35656604      -1.36240229       0.00000000
Si       1.35798327       1.35798327       1.35743946       0.00000000
Si       1.36088289      -1.35741312      -1.35912820       0.00000000
Si       2.71404432      -2.71322982      -0.00006893       0.00000000
Si      -2.71384884       0.00083079       2.71418963       0.00000000
Si       0.00040725       2.71490769       2.71401731       0.00000000
Si      -0.00001629      -2.71407690       2.71487891       0.00000000
Si       2.71479366       0.00112401       2.71429302       0.00000000
Si       2.71309950       2.71617831       0.00031018       0.00000000
