10
Lattice="16.28999089631971 0.0 0.0 0.0 16.28999089631971 0.0 0.0 0.0 34.46413024517268" Properties=species:S:1:pos:R:3:initial_magmoms:R:1 pbc="T T T"
Si      -1.29959991       1.33646418      -1.43543183       0.00000000
Si      -1.69140699      -0.75784338       1.50146514       0.00000000
Si       1.23228963       1.64748915       1.21430984       0.00000000
Si       1.40963886      -1.37911140      -1.40727462       0.00000000
Si      -0.61168950       3.33117468       1.25932002       0.00000000
Si      -2.55306654      -2.57085522       0.15822491       0.00000000
Si      -2.56502340       2.67217902       0.02371133       0.00000000
Si      -2.65152330      -0.02120958      -2.78311793       0.00000000
Si       0.06250473       2.68905546      -2.78335918       0.00000000
Si      -3.40636932       0.95343741       1.61950485       0.00000000
