10
Lattice="16.28999089631971 0.0 0.0 0.0 16.28999089631971 0.0 0.0 0.0 34.46413024517268" Properties=species:S:1:pos:R:3:initial_magmoms:R:1 pbc="T T T"
Si       2.08505484       0.23664483      -1.13331909       0.00000000
Si      -1.04697459      -1.98316089      -0.88459133       0.00000000
Si       0.00013032      -0.28087218       2.41838383       0.00000000
Si      -1.12296744       1.86421131      -1.19156351       0.00000000
Si       0.91755054      -3.22537113      -0.30214720       0.00000000
Si       3.09037590       0.82459980       1.45955673       0.00000000
Si       1.37266056       1.58433282       2.86500475       0.00000000
Si       2.89939194      -2.00182923      -1.11860290       0.00000000
Si       1.13283918       0.24834105      -3.54560277       0.00000000
Si      -3.31398873       1.12557384      -1.29361185       0.00000000
