10
Lattice="16.28999089631971 0.0 0.0 0.0 16.28999089631971 0.0 0.0 0.0 34.46413024517268" Properties=species:S:1:pos:R:3:initial_magmoms:R:1 pbc="T T T"
Si      -0.83803905      -1.87222599       1.14617422       0.00000000
Si       2.33746839      -0.18037917       0.22360340       0.00000000
Si      -0.44496135      -0.43930872      -2.30279108       0.00000000
Si      -1.31611797       1.92875229       0.54987551       0.00000000
Si       2.44367919      -2.35361178      -0.72929587       0.00000000
Si       0.32319360      -3.45611898      -0.25865344       0.00000000
Si      -3.09547467      -1.15883802       1.30570877       0.00000000
Si      -1.08295920       1.67677857      -3.04308101       0.00000000
Si      -2.79085167       1.00294272       2.17296463       0.00000000
Si       0.32135283       3.48307893       1.29450792       0.00000000
