10
Lattice="16.28999089631971 0.0 0.0 0.0 16.28999089631971 0.0 0.0 0.0 34.46413024517268" Properties=species:S:1:pos:R:3:initial_magmoms:R:1 pbc="T T T"
Si       1.61945406      -0.15128523      -1.63773638       0.00000000
Si      -1.48651137      -1.85231961      -0.41980781       0.00000000
Si       1.38774510       0.07983729       1.99543979       0.00000000
Si      -1.01328687       2.14241193      -0.94380073       0.00000000
Si      -2.73385296       1.30331403       0.67566965       0.00000000
Si       2.40516963      -2.15256060      -0.68942085       0.00000000
Si      -2.94378219      -1.01462265       1.18587692       0.00000000
Si       1.17760410       3.19673561      -0.97616257       0.00000000
Si       0.35272737       0.17826147      -3.61425536       0.00000000
Si       2.83504644      -1.84005324       1.67499213       0.00000000
