10
Lattice="16.28999089631971 0.0 0.0 0.0 16.28999089631971 0.0 0.0 0.0 34.46413024517268" Properties=species:S:1:pos:R:3:initial_magmoms:R:1 pbc="T T T"
Si      -0.80514954       1.72266165       1.40406945       0.00000000
Si      -1.73750769      -1.65141504       0.00230910       0.00000000
Si       1.61354079      -1.15372296       1.37667045       0.00000000
Si       0.39346866       0.98321131      -2.24937165       0.00000000
Si       0.93423150       3.34957328       0.95172749       0.00000000
Si       3.32433288      -1.60946829      -0.15543331       0.00000000
Si      -1.90081494       1.36303058      -2.90808494       0.00000000
Si       2.65101831       0.56505874       2.60300828       0.00000000
Si       3.02620959       2.09780081       0.80690913       0.00000000
Si       1.79372448      -0.56702232      -3.35112158       0.00000000
