10
Lattice="16.28999089631971 0.0 0.0 0.0 16.28999089631971 0.0 0.0 0.0 34.46413024517268" Properties=species:S:1:pos:R:3:initial_magmoms:R:1 pbc="T T T"
Si       1.73750769       1.65141504      -0.00230910       0.00000000
Si       0.50277456      -1.88770149      -1.41868225       0.00000000
Si      -2.17909701       0.75916287      -0.73929047       0.00000000
Si      -0.31886046      -0.66459942       2.49472193       0.00000000
Si      -3.39654645      -1.06174962       0.17893786       0.00000000
Si      -1.54719162       1.08315468      -3.03822156       0.00000000
Si       3.35104848       0.49769208       1.37436135       0.00000000
Si      -0.37494693      -0.97581987      -3.50879506       0.00000000
Si       0.93235815       3.37407669       1.40176035       0.00000000
Si      -2.90844918       2.54152086       0.71992162       0.00000000
