10
Lattice="16.28999089631971 0.0 0.0 0.0 16.28999089631971 0.0 0.0 0.0 34.46413024517268" Properties=species:S:1:pos:R:3:initial_magmoms:R:1 pbc="T T T"
Si       1.35029439      -1.32385059       1.39079041       0.00000000
Si       0.93963978       1.88467481      -1.10001259       0.00000000
Si      -1.37194380       1.38211202       1.37363761       0.00000000
Si      -1.05562458      -1.78214622      -1.27277104       0.00000000
Si       2.53366515      -2.75710272      -0.03674568       0.00000000
Si       3.41738136      -0.90728458      -1.27988237       0.00000000
Si      -2.67504606       2.65056545      -0.13942127       0.00000000
Si      -0.01181025      -2.67557127       2.74238130       0.00000000
Si       2.70356985       0.03633973       2.74203666       0.00000000
Si      -0.76870881       3.53863109      -1.33770670       0.00000000
