10
Lattice="16.28999089631971 0.0 0.0 0.0 16.28999089631971 0.0 0.0 0.0 34.46413024517268" Properties=species:S:1:pos:R:3:initial_magmoms:R:1 pbc="T T T"
Si      -0.68641173       1.34252406       1.76966515       0.00000000
Si       2.18962035      -0.31571649      -0.87214977       0.00000000
Si      -0.70737696       1.33586145      -1.84093701       0.00000000
Si      -1.20976056      -2.05491345       0.71768145       0.00000000
Si       2.26346292      -2.46107365      -0.04218412       0.00000000
Si      -2.90315493       1.81139913       1.04602140       0.00000000
Si      -2.94599763       1.61567478      -1.31360106       0.00000000
Si       0.19049526      -3.60514709      -0.38406848       0.00000000
Si      -0.18265977       0.09987399      -3.76472584       0.00000000
Si       0.63607563       3.30678855       1.91417333       0.00000000
