10
Lattice="16.28999089631971 0.0 0.0 0.0 16.28999089631971 0.0 0.0 0.0 34.46413024517268" Properties=species:S:1:pos:R:3:initial_magmoms:R:1 pbc="T T T"
Si      -1.34170956      -1.34325711      -1.37564342       0.00000000
Si      -1.35400851       1.35378045       1.35671571       0.00000000
Si       1.36013632      -1.35922131       1.35750838       0.00000000
Si       1.34174346       1.35083196      -1.38719925       0.00000000
Si       0.09868482      -2.49114825      -2.90829517       0.00000000
Si      -2.71055826       2.71117728      -0.00651372       0.00000000
Si      -2.71204065      -0.00250866       2.71322463       0.00000000
Si       0.00260640       2.71218726       2.71332803       0.00000000
Si       0.00270414      -2.71728603       2.71291446       0.00000000
Si       2.71725412      -0.00249237       2.71336249       0.00000000
