10
Lattice="16.28999089631971 0.0 0.0 0.0 16.28999089631971 0.0 0.0 0.0 34.46413024517268" Properties=species:S:1:pos:R:3:initial_magmoms:R:1 pbc="T T T"
Si      -0.28158894       1.92645540       1.29047561       0.00000000
Si      -2.23620649      -0.72234747      -0.46212978       0.00000000
Si       0.66507183       1.08354564      -2.03093787       0.00000000
Si       1.69772751      -1.31150790       1.11670737       0.00000000
Si       2.78322795       1.56739122      -0.79026295       0.00000000
Si      -0.19562661       0.55431612       3.26358264       0.00000000
Si      -1.25580262      -2.42828514      -1.94729338       0.00000000
Si      -0.13841613      -0.78244128      -3.34033430       0.00000000
Si       1.58988771       3.13926219       0.50793264       0.00000000
Si      -3.03929765      -0.79656471       1.83907595       0.00000000
