10
Lattice="16.28999089631971 0.0 0.0 0.0 16.28999089631971 0.0 0.0 0.0 34.46413024517268" Properties=species:S:1:pos:R:3:initial_magmoms:R:1 pbc="T T T"
Si       1.35716877       1.35668007      -1.35747392       0.00000000
Si      -1.35894438       1.35524655       1.35878356       0.00000000
Si      -1.35796698      -1.35775521      -1.35737053       0.00000000
Si       1.35778779      -1.35855342       1.36123051       0.00000000
Si      -2.72104902       0.00265527       2.70671091       0.00000000
Si       2.71285515       2.71520091      -0.00044803       0.00000000
Si      -0.00063531       2.71419093      -2.71429302       0.00000000
Si      -2.71477737      -0.00089595      -2.71422409       0.00000000
Si       2.71482624      -0.00096111      -2.71456874       0.00000000
Si       0.00017919      -2.71565703      -2.71467213       0.00000000
