10
Lattice="16.28999089631971 0.0 0.0 0.0 16.28999089631971 0.0 0.0 0.0 34.46413024517268" Properties=species:S:1:pos:R:3:initial_magmoms:R:1 pbc="T T T"
Si      -0.14346603       1.44401076       1.80344002       0.00000000
Si      -1.79802504       0.10046043      -1.48378503       0.00000000
Si      -0.93916737      -2.16378441       0.08364449       0.00000000
Si       2.25646541       0.16335612      -0.73884244       0.00000000
Si       3.30032861      -0.08860131       1.31715087       0.00000000
Si       2.16970487       1.72719612       2.29900002       0.00000000
Si      -0.82422513      -0.62517762      -3.45678866       0.00000000
Si      -2.43344907      -2.14702200       1.91276030       0.00000000
Si       2.66454620      -1.50226380      -2.30261876       0.00000000
Si       0.64769759      -3.91592052       0.02495204       0.00000000
