10
Lattice="16.28999089631971 0.0 0.0 0.0 16.28999089631971 0.0 0.0 0.0 34.46413024517268" Properties=species:S:1:pos:R:3:initial_magmoms:R:1 pbc="T T T"
Si      -0.90113022      -1.86942411       1.17188448       0.00000000
Si       2.37426750       0.28287585       0.37955368       0.00000000
Si      -0.42987681      -0.31250736      -2.36441298       0.00000000
Si      -1.44730134       1.91989053       0.32044766       0.00000000
Si       3.03616278       1.50521229      -1.51190777       0.00000000
Si      -2.83504644       1.84005324      -1.67499213       0.00000000
Si      -3.23859861      -1.68904494       0.94828107       0.00000000
Si       0.11419290       3.77918226       0.19217210       0.00000000
Si       0.24482241      -1.96934697       3.24621271       0.00000000
Si       3.39061689      -1.80265140       0.63820712       0.00000000
