10
Lattice="16.28999089631971 0.0 0.0 0.0 16.28999089631971 0.0 0.0 0.0 34.46413024517268" Properties=species:S:1:pos:R:3:initial_magmoms:R:1 pbc="T T T"
Si       0.14346603      -1.44401076      -1.80344002       0.00000000
Si      -1.01634939       2.08552725      -0.25865344       0.00000000
Si      -0.89324586      -0.72024606       2.04231104       0.00000000
Si       2.31317090       0.28318536       0.49556001       0.00000000
Si       0.49239198       0.81785574       3.18004154       0.00000000
Si       0.01725111       2.76408720       1.86499299       0.00000000
Si       2.39993144      -1.28065464      -2.54228245       0.00000000
Si       3.44379464      -1.53261207      -0.48628915       0.00000000
Si      -1.03030992      -3.06577800       2.00798474       0.00000000
Si      -3.39061689       1.80265140      -0.63820712       0.00000000
