10
Lattice="16.28999089631971 0.0 0.0 0.0 16.28999089631971 0.0 0.0 0.0 34.46413024517268" Properties=species:S:1:pos:R:3:initial_magmoms:R:1 pbc="T T T"
Si      -2.30876541       0.29286162       0.34512399       0.00000000
Si       0.85512956       2.18142648       0.29384134       0.00000000
Si       0.49459113      -0.19474695      -2.30179162       0.00000000
Si       0.82497514      -1.41123528       1.79475505       0.00000000
Si       3.00657104      -1.79424576       0.98484754       0.00000000
Si      -0.86887602       3.60184932      -0.52619863       0.00000000
Si      -3.18987522       0.95094504      -1.79117078       0.00000000
Si      -3.22085880      -1.85285718       0.80587521       0.00000000
Si       2.79568070      -0.47107422      -2.70870983       0.00000000
Si      -0.89104671      -1.73284875      -3.43952212       0.00000000
