10
Lattice="16.28999089631971 0.0 0.0 0.0 16.28999089631971 0.0 0.0 0.0 34.46413024517268" Properties=species:S:1:pos:R:3:initial_magmoms:R:1 pbc="T T T"
Si      -0.28512387      -1.10903949      -2.05213332       0.00000000
Si      -2.17689786       0.80699031       0.44183040       0.00000000
Si       0.67408020      -1.53593523       1.66496306       0.00000000
Si       0.91209339       2.14571880      -0.46075121       0.00000000
Si       0.07726347       0.67355892      -3.67970278       0.00000000
Si       3.04530147      -1.78082280       1.36126498       0.00000000
Si      -2.34131283      -2.31324516      -1.89004842       0.00000000
Si       3.22085880       1.85285718      -0.80587521       0.00000000
Si       0.19978056      -0.35165223       3.78409469       0.00000000
Si      -1.98190656       2.70168021       1.80650732       0.00000000
