10
Lattice="16.28999089631971 0.0 0.0 0.0 16.28999089631971 0.0 0.0 0.0 34.46413024517268" Properties=species:S:1:pos:R:3:initial_magmoms:R:1 pbc="T T T"
Si      -1.35475785      -1.33977105      -1.37088047       0.00000000
Si      -1.42211700       1.28203929       1.36653799       0.00000000
Si       1.36309833       1.37474568      -1.36733067       0.00000000
Si       1.42727883      -1.25231004       1.48354378       0.00000000
Si       0.18083529       2.21310468       2.74469040       0.00000000
Si       2.05236963       0.73371789       3.00554955       0.00000000
Si      -2.69794980      -2.69013060      -0.01299298       0.00000000
Si      -2.69045640       2.71797414      -0.01816261       0.00000000
Si       0.00104256      -2.69663031      -2.72576958       0.00000000
Si       2.74007152      -2.69120574       0.02867417       0.00000000
