10
Lattice="16.28999089631971 0.0 0.0 0.0 16.28999089631971 0.0 0.0 0.0 34.46413024517268" Properties=species:S:1:pos:R:3:initial_magmoms:R:1 pbc="T T T"
Si      -0.89709030      -1.77003882       1.39917007       0.00000000
Si       1.75844034       1.02573243       1.36061847       0.00000000
Si      -0.05574438      -1.10526021      -2.36313780       0.00000000
Si      -1.83084939       2.00068893       0.12459311       0.00000000
Si      -2.16117801      -0.27567567       2.77418624       0.00000000
Si      -2.11947561      -2.30505129      -2.02831859       0.00000000
Si       0.57506958       2.45898456       2.78815456       0.00000000
Si       0.50362164       0.90372033      -3.63479599       0.00000000
Si       1.54109916       2.62250203      -2.40845816       0.00000000
Si       2.64215655       2.87555057       0.11748178       0.00000000
