10
Lattice="16.28999089631971 0.0 0.0 0.0 16.28999089631971 0.0 0.0 0.0 34.46413024517268" Properties=species:S:1:pos:R:3:initial_magmoms:R:1 pbc="T T T"
Si       1.71079209      -0.45574533      -1.53210377       0.00000000
Si       1.03747752       1.71878170       1.22633783       0.00000000
Si      -1.61354079       1.15372296      -1.37667045       0.00000000
Si      -0.55936602      -2.00898054       1.27165819       0.00000000
Si       1.41266880       3.25152377      -0.56976132       0.00000000
Si      -3.35104848      -0.49769208      -1.37436135       0.00000000
Si       2.62073520       1.68013661      -2.00708867       0.00000000
Si       3.07791635       0.93432924       1.88343131       0.00000000
Si      -2.41869033       2.87638461       0.02739900       0.00000000
Si      -0.50362164      -0.90372033       3.63479599       0.00000000
