10
Lattice="16.28999089631971 0.0 0.0 0.0 16.28999089631971 0.0 0.0 0.0 34.46413024517268" Properties=species:S:1:pos:R:3:initial_magmoms:R:1 pbc="T T T"
Si       0.76979209       0.32149944      -2.20501629       0.00000000
Si      -1.58686496       1.75213611       0.05869245       0.00000000
Si      -1.26318266      -1.94020416       0.61473703       0.00000000
Si       2.19406752       0.02133990       0.99498000       0.00000000
Si       1.80186948      -1.81578114      -2.63202710       0.00000000
Si       2.18887101       1.87680348       2.43323788       0.00000000
Si      -1.19372210      -1.98373104       3.05035294       0.00000000
Si      -3.56600222      -1.56814056       0.15777688       0.00000000
Si       2.01684861       2.41365672      -2.32757080       0.00000000
Si      -0.64769759       3.91592052      -0.02495204       0.00000000
