10
Lattice="16.28999089631971 0.0 0.0 0.0 16.28999089631971 0.0 0.0 0.0 34.46413024517268" Properties=species:S:1:pos:R:3:initial_magmoms:R:1 pbc="T T T"
Si       1.35708899      -1.35731538      -1.35768071       0.00000000
Si      -1.35755873       1.35736425      -1.35771517       0.00000000
Si       1.35786603       1.35821133       1.35764624       0.00000000
Si      -1.35785195      -1.35913986       1.35681910       0.00000000
Si      -0.00002880      -2.71404432      -2.71353481       0.00000000
Si      -2.71417364      -0.00104256      -2.71432749       0.00000000
Si       0.00198325      -2.71687878       2.71287999       0.00000000
Si       2.71478556      -2.71533123      -0.00020678       0.00000000
Si      -2.71495556      -2.71523349      -0.00044803       0.00000000
Si       2.71517652       2.71503801       0.00013786       0.00000000
