10
Lattice="16.28999089631971 0.0 0.0 0.0 16.28999089631971 0.0 0.0 0.0 34.46413024517268" Properties=species:S:1:pos:R:3:initial_magmoms:R:1 pbc="T T T"
Si       1.04386320      -0.25195743       2.05599330       0.00000000
Si       0.40808079      -1.66561992      -1.56377632       0.00000000
Si      -2.25646541      -0.16335612       0.73884244       0.00000000
Si       1.53443655       1.80941175      -0.58158252       0.00000000
Si      -0.08676054       1.56384000       3.03784246       0.00000000
Si       0.32211846      -0.29348064      -3.53688334       0.00000000
Si      -1.40963397       1.25548659      -3.05841756       0.00000000
Si      -2.39993144       1.28065464       2.54228245       0.00000000
Si       3.29535297       0.42816636       2.01025938       0.00000000
Si       2.53332306      -2.59576263      -1.41389173       0.00000000
