10
Lattice="16.28999089631971 0.0 0.0 0.0 16.28999089631971 0.0 0.0 0.0 34.46413024517268" Properties=species:S:1:pos:R:3:initial_magmoms:R:1 pbc="T T T"
Si      -2.33022653      -0.26321382      -0.24283440       0.00000000
Si       1.03430097      -1.02159477      -1.88298327       0.00000000
Si       1.25894007      -1.26275193       1.57608002       0.00000000
Si      -0.10787238       2.30218425       0.64775369       0.00000000
Si      -2.51373338      -1.10130174      -2.44619640       0.00000000
Si      -2.99212181      -1.48555026       1.64862706       0.00000000
Si       2.07681210       3.11483487       0.49948892       0.00000000
Si       2.62785393       0.47965905      -2.67500389       0.00000000
Si       1.95859557      -3.04232040      -1.21658448       0.00000000
Si       2.11276413       0.14786433       3.20340823       0.00000000
