10
Lattice="16.28999089631971 0.0 0.0 0.0 16.28999089631971 0.0 0.0 0.0 34.56409401068381" Properties=species:S:1:pos:R:3:initial_magmoms:R:1 pbc="T T T"
Si       1.33434648      -1.65988162      -1.34146780       0.00000000
Si      -1.22794020       1.33530270       2.00820955       0.00000000
Si      -1.84798647       0.94161901      -1.81955862       0.00000000
Si       2.51273250       1.26244405       0.65616513       0.00000000
Si       0.92144385      -1.40306977       2.41098516       0.00000000
Si       0.14688693       3.85473039       0.09273552       0.00000000
Si       2.24376831      -0.41446225      -3.13022980       0.00000000
Si       2.80422576      -0.07817571       2.73775429       0.00000000
Si       3.12759855       1.59356436      -1.86860509       0.00000000
Si      -2.22047361       3.17998230       0.99129877       0.00000000
