10
Lattice="16.28999089631971 0.0 0.0 0.0 16.28999089631971 0.0 0.0 0.0 34.56409401068381" Properties=species:S:1:pos:R:3:initial_magmoms:R:1 pbc="T T T"
Si       0.59609997       2.29073238      -0.45994466       0.00000000
Si      -2.27336724      -0.50858683      -0.63947066       0.00000000
Si       0.47773683      -0.98772786       2.15856344       0.00000000
Si       0.93794562      -1.74622137      -1.39697777       0.00000000
Si       2.04799509      -0.33467316      -2.84884335       0.00000000
Si      -3.13673724      -1.06055882       1.46620969       0.00000000
Si      -0.52906662       2.56446954      -2.55090069       0.00000000
Si       2.43934605      -2.16797813       1.64971056       0.00000000
Si      -1.36842516      -2.43353771       2.38295367       0.00000000
Si       3.07426509       1.56346533       1.57826654       0.00000000
