10
Lattice="16.28999089631971 0.0 0.0 0.0 16.28999089631971 0.0 0.0 0.0 34.56409401068381" Properties=species:S:1:pos:R:3:initial_magmoms:R:1 pbc="T T T"
Si       1.55059623      -1.14462011      -1.30617784       0.00000000
Si      -1.69971489      -1.64072717       0.19760304       0.00000000
Si      -0.42935553       2.13516288      -0.96039845       0.00000000
Si       1.86271263       0.54964089       1.51345883       0.00000000
Si       3.31063299       0.07174116      -0.30924512       0.00000000
Si      -3.37180194      -0.30981951      -0.70918648       0.00000000
Si      -1.99772415      -0.80347493       2.85558335       0.00000000
Si       1.97185563      -1.43206042       2.77681174       0.00000000
Si      -2.27160792       2.98911726       0.39223356       0.00000000
Si      -3.53519064       1.11610935       1.24804100       0.00000000
