10
Lattice="16.28999089631971 0.0 0.0 0.0 16.28999089631971 0.0 0.0 0.0 34.56409401068381" Properties=species:S:1:pos:R:3:initial_magmoms:R:1 pbc="T T T"
Si       1.35840681       0.96059035       1.76381849       0.00000000
Si       1.98482247       0.54386771      -1.32352903       0.00000000
Si      -1.09698489      -1.52287784       1.63801549       0.00000000
Si      -1.98475731       1.17245320      -1.24475741       0.00000000
Si       3.35015253       1.54026837       0.46995308       0.00000000
Si      -2.73841416      -2.76686369       0.52377701       0.00000000
Si       0.12491172       2.46322719       3.09374534       0.00000000
Si      -2.57175117      -0.25940267       3.07757625       0.00000000
Si       1.87567947       2.52556902      -2.58688193       0.00000000
Si       3.05450532      -1.24127261      -2.45574569       0.00000000
