10
Lattice="16.28999089631971 0.0 0.0 0.0 16.28999089631971 0.0 0.0 0.0 34.56409401068381" Properties=species:S:1:pos:R:3:initial_magmoms:R:1 pbc="T T T"
Si       1.28484117      -1.41406974       1.48088561       0.00000000
Si      -1.41178914       1.29393099       1.47523092       0.00000000
Si      -1.82109168      -0.99896796      -1.28674732       0.00000000
Si       1.52381547       1.39329999      -1.60864291       0.00000000
Si      -2.87514590       2.51007723       0.04868010       0.00000000
Si       2.51833626      -2.91670658       0.15095876       0.00000000
Si      -2.76092205      -2.72680428       0.04076146       0.00000000
Si      -0.06428034       2.64678291       2.84755065       0.00000000
Si       2.65171878      -0.06292827       2.84879496       0.00000000
Si       2.81031822       2.71841004      -0.08848067       0.00000000
