10
Lattice="16.28999089631971 0.0 0.0 0.0 16.28999089631971 0.0 0.0 0.0 34.56409401068381" Properties=species:S:1:pos:R:3:initial_magmoms:R:1 pbc="T T T"
Si      -1.28650275      -1.32511005      -1.52016223       0.00000000
Si       1.19086416      -1.43813007       1.55127197       0.00000000
Si       1.90596258       0.71301330      -1.41367020       0.00000000
Si      -1.49586183       1.27369881       1.55958810       0.00000000
Si       2.57593770       2.47321296       0.12217377       0.00000000
Si       0.62341830      -1.90079865      -2.98848033       0.00000000
Si       2.47065543      -2.93910696       0.10134198       0.00000000
Si      -2.98778148       2.48341050       0.19924137       0.00000000
Si       2.55873546      -0.06919992       2.93779409       0.00000000
Si      -2.81031822      -2.71841004       0.08848067       0.00000000
