10
Lattice="16.28999089631971 0.0 0.0 0.0 16.28999089631971 0.0 0.0 0.0 34.56409401068381" Properties=species:S:1:pos:R:3:initial_magmoms:R:1 pbc="T T T"
Si      -1.35115776      -1.36010097       1.36120391       0.00000000
Si      -1.35545832       1.35728280      -1.36061632       0.00000000
Si       1.35887922      -1.35697329      -1.35989047       0.00000000
Si       1.36316349       1.35845568       1.37444197       0.00000000
Si      -2.70593190      -0.01236411       2.71065602       0.00000000
Si      -2.71301805       2.71235016      -0.00203928       0.00000000
Si      -2.71181259      -2.71740006       0.00034564       0.00000000
Si       2.71658556       2.71303434       0.00010369       0.00000000
Si      -2.71407690      -0.00068418      -2.71763797       0.00000000
Si       0.00141723       2.71451673      -2.71760341       0.00000000
