10
Lattice="16.28999089631971 0.0 0.0 0.0 16.28999089631971 0.0 0.0 0.0 34.56409401068381" Properties=species:S:1:pos:R:3:initial_magmoms:R:1 pbc="T T T"
Si       0.08656506      -2.18688363       0.70555725       0.00000000
Si      -0.59867379       0.36356022       2.26097691       0.00000000
Si       1.93914531       1.36539522      -0.12021399       0.00000000
Si      -1.82966022       0.52535250      -1.42970998       0.00000000
Si       1.24330167      -2.72502378      -1.36237909       0.00000000
Si      -0.37025541       1.94803965      -2.67768186       0.00000000
Si       2.64292218       1.19834127       2.08283347       0.00000000
Si       1.00414818       3.32061876      -1.07387244       0.00000000
Si       2.28107241      -0.98723916      -2.70305192       0.00000000
Si      -3.49537788       1.67602923      -0.21747740       0.00000000
