10
Lattice="16.28999089631971 0.0 0.0 0.0 16.28999089631971 0.0 0.0 0.0 34.56409401068381" Properties=species:S:1:pos:R:3:initial_magmoms:R:1 pbc="T T T"
Si       1.00387125       1.77015285      -1.18119401       0.00000000
Si       0.82355724      -1.72247202      -1.40530772       0.00000000
Si       1.12516659      -0.27373716       2.09095604       0.00000000
Si      -2.39471145       0.26735148       0.17942231       0.00000000
Si       0.52906662      -2.56446954       2.55090069       0.00000000
Si       0.42650478       3.63947922       0.16811985       0.00000000
Si      -0.70366284       2.89227321       2.14733010       0.00000000
Si      -3.13258329       0.15534144      -2.08691203       0.00000000
Si      -0.04870710       1.10180673       3.64437098       0.00000000
Si       2.57706171      -2.89914270      -0.29794266       0.00000000
