10
Lattice="16.28999089631971 0.0 0.0 0.0 16.28999089631971 0.0 0.0 0.0 34.56409401068381" Properties=species:S:1:pos:R:3:initial_magmoms:R:1 pbc="T T T"
Si       0.42935553      -2.13516288       0.96039845       0.00000000
Si      -1.11272103       0.24566949      -2.09444701       0.00000000
Si      -1.84225239       0.85395438       1.35263201       0.00000000
Si       2.13513030       1.16178651      -0.28204316       0.00000000
Si       1.42283376       2.58106905      -2.06382321       0.00000000
Si      -2.68063353      -1.59298281      -1.95266502       0.00000000
Si       2.29206816      -1.58552199       2.47385728       0.00000000
Si      -2.29055319       2.31355467      -1.89414797       0.00000000
Si      -2.94244641      -2.44498239       0.25121198       0.00000000
Si       1.97995176      -3.27978299      -0.34577939       0.00000000
