10
Lattice="16.28999089631971 0.0 0.0 0.0 16.28999089631971 0.0 0.0 0.0 34.56409401068381" Properties=species:S:1:pos:R:3:initial_magmoms:R:1 pbc="T T T"
Si       1.28650275       1.32511005       1.52016223       0.00000000
Si      -1.44314739       1.43749476      -1.28053127       0.00000000
Si       1.90992105      -0.57568860      -1.46831810       0.00000000
Si      -1.52381547      -1.39329999       1.60864291       0.00000000
Si       3.19246533       2.03812335       0.10649203       0.00000000
Si      -3.04658838       2.41279335       0.24913813       0.00000000
Si       2.47736691      -0.11302002       3.07143420       0.00000000
Si      -0.20935908       2.59880886       3.07975033       0.00000000
Si       1.51179345      -2.74502790      -2.59109876       0.00000000
Si      -3.34490715      -2.39226795       0.32189559       0.00000000
