10
Lattice="16.28999089631971 0.0 0.0 0.0 16.28999089631971 0.0 0.0 0.0 34.56409401068381" Properties=species:S:1:pos:R:3:initial_magmoms:R:1 pbc="T T T"
Si      -0.86337000      -0.55197199       2.10568035       0.00000000
Si      -1.70548155       1.35503152      -0.90903618       0.00000000
Si       2.27336724       0.50858683       0.63947066       0.00000000
Si      -0.03505608      -1.69044003      -1.74566054       0.00000000
Si       3.21131286      -1.23763454      -0.75750711       0.00000000
Si       0.90494208      -1.92495087       3.02242433       0.00000000
Si      -2.87552872      -1.67437809       1.68589919       0.00000000
Si      -0.65041083       3.34040785      -1.73200772       0.00000000
Si      -2.70518908       0.24186903      -2.77000261       0.00000000
Si       2.75110407      -0.47914103       2.79803410       0.00000000
