10
Lattice="16.28999089631971 0.0 0.0 0.0 16.28999089631971 0.0 0.0 0.0 34.56409401068381" Properties=species:S:1:pos:R:3:initial_magmoms:R:1 pbc="T T T"
Si      -1.45148787       1.19472489      -1.41228967       0.00000000
Si      -1.45940481      -1.42268715       1.24797188       0.00000000
Si       1.25167473      -1.51345503      -1.38781828       0.00000000
Si       1.37440359       1.37257911       1.60380942       0.00000000
Si       0.37025541      -1.94803965       2.67768186       0.00000000
Si       2.30940072      -0.58264443       2.55746787       0.00000000
Si      -2.66062941       2.63241513      -0.02260493       0.00000000
Si      -0.11341098       2.55531456      -2.76212199       0.00000000
Si       2.60509680      -0.15887637      -2.76215655       0.00000000
Si       2.73867480       2.66686848       0.15844190       0.00000000
