10
Lattice="16.28999089631971 0.0 0.0 0.0 16.28999089631971 0.0 0.0 0.0 34.56409401068381" Properties=species:S:1:pos:R:3:initial_magmoms:R:1 pbc="T T T"
Si       0.98587080       1.05948531       1.83936385       0.00000000
Si      -1.91430306       1.46983041      -0.10904978       0.00000000
Si       1.95418098       0.11930796      -1.41612629       0.00000000
Si      -0.50223699      -2.26817073       0.69373632       0.00000000
Si      -0.97086771      -1.70665443      -2.84165401       0.00000000
Si       1.06295508      -0.60264855      -3.50487022       0.00000000
Si       1.22235273       3.40257375       1.18921288       0.00000000
Si      -2.07363555       2.45030922       2.11373379       0.00000000
Si      -0.57174642       1.34262180       3.57171721       0.00000000
Si      -1.09203273      -3.50816553      -1.21496315       0.00000000
