10
Lattice="16.28999089631971 0.0 0.0 0.0 16.28999089631971 0.0 0.0 0.0 34.56409401068381" Properties=species:S:1:pos:R:3:initial_magmoms:R:1 pbc="T T T"
Si      -0.00475668       0.96119145      -2.15676611       0.00000000
Si      -0.33076845       1.98296541       1.25070244       0.00000000
Si      -1.74979035      -1.62201159      -0.07355243       0.00000000
Si       1.96359660      -1.35449721      -0.24322767       0.00000000
Si       1.01460636      -2.81126304      -1.88633648       0.00000000
Si       0.35965062      -1.02079656      -3.38337736       0.00000000
Si       3.36362436       0.14548599      -1.36846237       0.00000000
Si       2.09386773       1.98345411      -2.23671290       0.00000000
Si      -1.95080895       3.10989132      -0.04220278       0.00000000
Si      -0.57195819      -3.68989677      -0.27385147       0.00000000
