10
Lattice="16.28999089631971 0.0 0.0 0.0 16.28999089631971 0.0 0.0 0.0 34.56409401068381" Properties=species:S:1:pos:R:3:initial_magmoms:R:1 pbc="T T T"
Si       1.08395289      -2.05296354      -0.44027768       0.00000000
Si       0.48066903       1.78782750      -1.47716651       0.00000000
Si      -2.08987668       0.66903030       1.01117314       0.00000000
Si       3.02759424       1.32203124       1.37319766       0.00000000
Si       1.65811023      -0.85255344       3.13942385       0.00000000
Si       2.11401846       2.99592648      -0.20126683       0.00000000
Si      -0.17949951      -2.88839619      -2.31406739       0.00000000
Si      -2.97750249      -1.45318203       1.75240055       0.00000000
Si       3.35880252      -1.47694914      -0.97774964       0.00000000
Si       0.37556595      -3.46636539       1.56461372       0.00000000
