10
Lattice="16.28999089631971 0.0 0.0 0.0 16.28999089631971 0.0 0.0 0.0 34.56409401068381" Properties=species:S:1:pos:R:3:initial_magmoms:R:1 pbc="T T T"
Si       0.90942183       1.24541937      -1.78876199       0.00000000
Si      -1.33434648       1.65988162       1.34146780       0.00000000
Si       1.75280400      -1.25594271       1.30479528       0.00000000
Si      -1.54386846      -1.22728860      -1.75419788       0.00000000
Si       1.17838602       2.92232567       1.99763293       0.00000000
Si       1.79325207       3.25344599      -0.52713729       0.00000000
Si       2.57044797      -2.73388554      -0.41241900       0.00000000
Si      -0.41290263       0.25681185       3.75245296       0.00000000
Si      -2.83654512      -2.75362902      -0.45265163       0.00000000
Si       2.31168132      -0.00278559      -3.33578258       0.00000000
