10
Lattice="16.28999089631971 0.0 0.0 0.0 16.28999089631971 0.0 0.0 0.0 34.56409401068381" Properties=species:S:1:pos:R:3:initial_magmoms:R:1 pbc="T T T"
Si      -2.15228367       0.90830434      -0.25179957       0.00000000
Si       0.47995227      -1.27985252      -1.95183548       0.00000000
Si       1.26521172       1.88378212       0.81408856       0.00000000
Si       0.00757485      -1.83446644       1.73791818       0.00000000
Si      -1.51122330      -2.59700134      -2.05099992       0.00000000
Si       2.40903036      -2.44343551      -1.23165761       0.00000000
Si       3.38483394       0.83760574       1.13422138       0.00000000
Si       3.63255597      -0.43826779      -0.82584036       0.00000000
Si      -2.42137818      -2.38063756       1.70204063       0.00000000
Si      -2.15399412       2.54860960      -1.92342378       0.00000000
