10
Lattice="16.28999089631971 0.0 0.0 0.0 16.28999089631971 0.0 0.0 0.0 34.56409401068381" Properties=species:S:1:pos:R:3:initial_magmoms:R:1 pbc="T T T"
Si      -1.76207301       0.95718411       1.18489237       0.00000000
Si       1.25309196       1.44454833      -1.38394710       0.00000000
Si      -1.42014591      -1.39545027      -1.39794556       0.00000000
Si       1.71642843      -0.17094726       1.71662669       0.00000000
Si      -1.05829614       0.79013016       3.38793982       0.00000000
Si       2.63412558       2.69959509       0.06504966       0.00000000
Si       2.59581150       0.02634093      -2.76906938       0.00000000
Si      -0.09438426      -2.68193673      -2.79571831       0.00000000
Si      -0.11557755       2.75413401      -2.76025553       0.00000000
Si      -3.70121832      -0.40821111       1.30510636       0.00000000
