10
Lattice="16.28999089631971 0.0 0.0 0.0 16.28999089631971 0.0 0.0 0.0 34.56409401068381" Properties=species:S:1:pos:R:3:initial_magmoms:R:1 pbc="T T T"
Si       0.50044509       2.24081982       0.25940367       0.00000000
Si      -0.06335181      -0.95316048       2.16965852       0.00000000
Si       1.95473484      -0.70090983      -1.22830490       0.00000000
Si      -2.15119224       0.33228342      -1.13214753       0.00000000
Si       0.27448650       2.79586899      -2.03288833       0.00000000
Si      -0.65023164      -3.19836231       1.90206316       0.00000000
Si       1.70368965      -3.02120856      -1.50720273       0.00000000
Si       1.34939844      -0.76887171      -3.57531188       0.00000000
Si      -0.86227857       3.30414957       1.92325096       0.00000000
Si      -2.10183354       2.39322906      -2.29564471       0.00000000
