10
Lattice="16.28999089631971 0.0 0.0 0.0 16.28999089631971 0.0 0.0 0.0 34.56409401068381" Properties=species:S:1:pos:R:3:initial_magmoms:R:1 pbc="T T T"
Si       0.23635161      -1.58275269       1.71272094       0.00000000
Si       1.82188989      -0.76952331      -1.32778041       0.00000000
Si       0.56013165       2.29469085       0.47418507       0.00000000
Si      -2.24181351      -0.85548564      -0.32549026       0.00000000
Si       1.23501006      -3.01472514      -1.59537578       0.00000000
Si      -3.41568720       0.52005825       1.22792469       0.00000000
Si       2.19947580       1.95144426       2.20823207       0.00000000
Si       2.09810313      -0.26777502       3.11944579       0.00000000
Si       0.90520272      -3.65461100       0.71063817       0.00000000
Si       1.02296313       3.48778674      -1.57418798       0.00000000
