10
Lattice="16.28999089631971 0.0 0.0 0.0 16.28999089631971 0.0 0.0 0.0 34.56409401068381" Properties=species:S:1:pos:R:3:initial_magmoms:R:1 pbc="T T T"
Si       2.33052885       0.18344169      -0.10825480       0.00000000
Si      -0.33257664       1.45384992       1.87071351       0.00000000
Si      -0.10137267      -2.21921928       0.91121372       0.00000000
Si      -1.63934415       0.34324659      -1.73404700       0.00000000
Si       0.97441893      -1.72568115       2.97579734       0.00000000
Si      -3.26614500       1.52536302      -0.46243327       0.00000000
Si       2.81856096      -0.30042018       2.29049466       0.00000000
Si      -2.19947580      -1.95144426      -2.20823207       0.00000000
Si      -2.21674320       2.64473037       1.29397671       0.00000000
Si      -0.41557419       0.01754433       3.78089923       0.00000000
