10
Lattice="16.28999089631971 0.0 0.0 0.0 16.28999089631971 0.0 0.0 0.0 34.56409401068381" Properties=species:S:1:pos:R:3:initial_magmoms:R:1 pbc="T T T"
Si       1.35552348      -1.35627282       1.36006330       0.00000000
Si      -1.34750880      -1.35285192      -1.37231973       0.00000000
Si      -1.35633798       1.36042677       1.35906094       0.00000000
Si       1.37873673       1.34532594      -1.37644323       0.00000000
Si      -0.11318292       2.55503763      -2.73678995       0.00000000
Si       2.71599912      -2.70971118       0.00124431       0.00000000
Si      -2.71330638      -2.71448415      -0.00003456       0.00000000
Si      -0.00032580      -2.71243161       2.71705038       0.00000000
Si      -2.71473339       0.00232947       2.71705038       0.00000000
Si       2.71526607       0.00247608       2.71673931       0.00000000
