10
Lattice="16.28999089631971 0.0 0.0 0.0 16.28999089631971 0.0 0.0 0.0 34.56409401068381" Properties=species:S:1:pos:R:3:initial_magmoms:R:1 pbc="T T T"
Si      -1.81499922      -0.89450019       1.23372109       0.00000000
Si      -1.11549033      -0.48011517      -2.06834907       0.00000000
Si       1.65754008      -1.74821022      -0.16528356       0.00000000
Si       0.87920388       1.90498518       1.19946460       0.00000000
Si      -0.47659653      -2.09264598       2.70044233       0.00000000
Si       0.54180540      -2.04242391      -2.79187966       0.00000000
Si       2.24194383       0.63374616       2.67662074       0.00000000
Si      -2.48497434      -2.65469985      -0.30212288       0.00000000
Si       0.74078775      -3.48584823       1.24861822       0.00000000
Si       3.51432315      -0.77191794       1.19412099       0.00000000
