10
Lattice="16.28999089631971 0.0 0.0 0.0 16.28999089631971 0.0 0.0 0.0 34.56409401068381" Properties=species:S:1:pos:R:3:initial_magmoms:R:1 pbc="T T T"
Si       2.07806643       1.02058479      -0.40464207       0.00000000
Si      -1.43909118       1.88731053       0.16635708       0.00000000
Si      -0.78643233      -1.21862232      -1.89373321       0.00000000
Si       0.09835902      -1.06554519       2.13706456       0.00000000
Si      -1.27420380      -2.94633972       1.73041777       0.00000000
Si      -2.26144296       1.61437158       2.37265356       0.00000000
Si       2.09315097       2.77959528       1.19557268       0.00000000
Si       2.37855177      -1.72211364       2.36629376       0.00000000
Si      -3.15273402      -1.56633237      -1.43551675       0.00000000
Si      -0.78407028       0.43337916       3.71301531       0.00000000
