10
Lattice="16.28999089631971 0.0 0.0 0.0 16.28999089631971 0.0 0.0 0.0 34.56409401068381" Properties=species:S:1:pos:R:3:initial_magmoms:R:1 pbc="T T T"
Si       1.88416656      -1.19088045       0.57673679       0.00000000
Si      -1.04940180      -1.11936735      -1.75640998       0.00000000
Si      -1.07696448       0.63759060       1.98750564       0.00000000
Si       0.18928980       2.05654734      -1.12112158       0.00000000
Si      -2.15454798       2.53144971      -1.11420876       0.00000000
Si      -2.31915843       0.71860077      -2.62466051       0.00000000
Si      -2.80220580       2.02637826       1.11718127       0.00000000
Si      -2.44942956      -2.61935055      -0.63117527       0.00000000
Si       3.45256776       0.51821748       1.09585521       0.00000000
Si       2.21674320      -2.64473037      -1.29397671       0.00000000
