10
Lattice="16.28999089631971 0.0 0.0 0.0 16.28999089631971 0.0 0.0 0.0 34.56409401068381" Properties=species:S:1:pos:R:3:initial_magmoms:R:1 pbc="T T T"
Si       1.35694071      -1.35979146       1.36538617       0.00000000
Si      -1.35948195       1.35866745       1.36607745       0.00000000
Si       1.37010303       1.34579835      -1.36918131       0.00000000
Si      -1.35669636      -1.37784078      -1.37852744       0.00000000
Si      -2.70912474       2.71077003       0.00829539       0.00000000
Si      -2.71160082      -2.71630863       0.00756954       0.00000000
Si       2.71611315       2.71254564       0.00535744       0.00000000
Si       2.71477737      -2.71399545       0.00808800       0.00000000
Si       0.02107926       2.64736935      -2.78776510       0.00000000
Si       2.71463076       0.00001629       2.72264977       0.00000000
