10
Lattice="16.28999089631971 0.0 0.0 0.0 16.28999089631971 0.0 0.0 0.0 34.56409401068381" Properties=species:S:1:pos:R:3:initial_magmoms:R:1 pbc="T T T"
Si       0.81764397      -1.47794283      -1.71721428       0.00000000
Si      -0.85338423      -0.42806862       2.31738554       0.00000000
Si      -1.75280400       1.25594271      -1.30479528       0.00000000
Si       2.08184571       1.06502391       1.12257327       0.00000000
Si       2.32528347      -2.58199758      -0.28885230       0.00000000
Si      -2.16570663       1.51275456       2.44765769       0.00000000
Si      -2.50434315      -2.04843492       1.95722748       0.00000000
Si       1.97301222      -0.06048477      -3.27045640       0.00000000
Si      -0.28292472       2.83764862       2.77442681       0.00000000
Si      -0.84338217       2.50136208      -3.09355727       0.00000000
