10
Lattice="16.28999089631971 0.0 0.0 0.0 16.28999089631971 0.0 0.0 0.0 34.56409401068381" Properties=species:S:1:pos:R:3:initial_magmoms:R:1 pbc="T T T"
Si      -0.82235178      -0.27293895       2.20629648       0.00000000
Si       1.43909118      -1.88731053      -0.16635708       0.00000000
Si       0.96396075       2.02209399      -0.80980261       0.00000000
Si      -1.54414539      -0.03842811      -1.84413370       0.00000000
Si       1.39108455       1.45466442      -3.03894597       0.00000000
Si      -0.97368588       3.22728913      -1.38709243       0.00000000
Si       3.51715761      -0.86672574      -0.57099915       0.00000000
Si      -2.41759890      -1.99676304       1.98377272       0.00000000
Si       0.65265885      -3.10593285      -2.06009028       0.00000000
Si       3.53224215       0.89228475       1.02921560       0.00000000
