10
Lattice="16.28999089631971 0.0 0.0 0.0 16.28999089631971 0.0 0.0 0.0 34.56409401068381" Properties=species:S:1:pos:R:3:initial_magmoms:R:1 pbc="T T T"
Si       1.31882211      -1.37122704       1.41916447       0.00000000
Si      -1.39196421       1.36032903       1.40296082       0.00000000
Si      -1.54751742      -1.22583879      -1.38460869       0.00000000
Si       1.72875737       0.78079599      -1.53029643       0.00000000
Si       2.58556250       2.57041539      -0.01351111       0.00000000
Si       2.69978635      -2.66646612      -0.02142975       0.00000000
Si       2.68312168      -0.00736308       2.78532488       0.00000000
Si      -2.73245202      -2.73685521       0.02811791       0.00000000
Si      -0.03640815       2.71373481       2.78480642       0.00000000
Si      -0.03135825      -2.72021660       2.78639637       0.00000000
