10
Lattice="16.28999089631971 0.0 0.0 0.0 16.28999089631971 0.0 0.0 0.0 34.56409401068381" Properties=species:S:1:pos:R:3:initial_magmoms:R:1 pbc="T T T"
Si       1.34258922       1.35703845       1.34838062       0.00000000
Si       1.35492075      -1.35764118      -1.35681427       0.00000000
Si      -1.36098063       1.35741312      -1.35619211       0.00000000
Si      -1.37037996      -1.35540945       1.36994863       0.00000000
Si       2.68679115      -0.02722059       2.65784206       0.00000000
Si      -0.06183684       2.65593789       2.69451458       0.00000000
Si       2.71245541      -0.00003258      -2.71345572       0.00000000
Si       2.71103540      -2.71544526      -0.00210841       0.00000000
Si       2.71363905       2.71383255       0.00421682       0.00000000
Si      -0.00259011      -2.71453302      -2.71387049       0.00000000
