10
Lattice="16.28999089631971 0.0 0.0 0.0 16.28999089631971 0.0 0.0 0.0 34.56409401068381" Properties=species:S:1:pos:R:3:initial_magmoms:R:1 pbc="T T T"
Si       1.98256372       1.25983602       0.09629562       0.00000000
Si       0.50795964      -1.49216400      -1.79325533       0.00000000
Si      -2.00642301       1.23064434      -0.52879637       0.00000000
Si      -0.05077593      -1.33721352       2.12897656       0.00000000
Si       2.27016530      -2.04367824       2.11577307       0.00000000
Si       3.53374802      -0.17067033       1.25996562       0.00000000
Si      -1.26073197      -3.00358278      -1.92853927       0.00000000
Si      -3.85056504      -0.19461663       0.15650631       0.00000000
Si       3.08544722       1.28892996      -1.98681436       0.00000000
Si       1.71256023       3.20031711       1.46005728       0.00000000
