10
Lattice="16.28999089631971 0.0 0.0 0.0 16.28999089631971 0.0 0.0 0.0 34.56409401068381" Properties=species:S:1:pos:R:3:initial_magmoms:R:1 pbc="T T T"
Si       1.34998488       1.36205577       1.37552037       0.00000000
Si      -1.36226754      -1.35459495       1.37317001       0.00000000
Si      -1.36273995       1.27123902      -1.47715614       0.00000000
Si       1.27237932      -1.40566410      -1.48249975       0.00000000
Si       2.01564315       0.60302322      -2.39859427       0.00000000
Si      -2.24194383      -0.63374616      -2.67662074       0.00000000
Si       0.44360928       2.32095033      -2.73883411       0.00000000
Si      -0.58440375      -2.38195638      -2.84190430       0.00000000
Si      -2.70694188       2.70519885      -0.00409930       0.00000000
Si       2.70399066      -2.71839375      -0.01454112       0.00000000
