10
Lattice="16.28999089631971 0.0 0.0 0.0 16.28999089631971 0.0 0.0 0.0 34.56409401068381" Properties=species:S:1:pos:R:3:initial_magmoms:R:1 pbc="T T T"
Si       1.34420193      -1.38425904       1.30946143       0.00000000
Si      -1.34258922      -1.35703845      -1.34838062       0.00000000
Si      -1.40442606       1.29889944       1.34613396       0.00000000
Si       1.37104983       1.35679410      -1.34416380       0.00000000
Si       2.71146465       0.06116895       2.55777895       0.00000000
Si      -2.70356985       0.00037467      -2.70457274       0.00000000
Si       0.01233153      -2.71467963      -2.70519489       0.00000000
Si       0.01260846       2.71687878      -2.70426166       0.00000000
Si      -0.14452488       2.46671325       2.93290327       0.00000000
Si      -2.71296918      -2.71244790       0.02156801       0.00000000
