10
Lattice="16.28999089631971 0.0 0.0 0.0 16.28999089631971 0.0 0.0 0.0 34.56409401068381" Properties=species:S:1:pos:R:3:initial_magmoms:R:1 pbc="T T T"
Si       1.36109466       1.34988714      -1.35453304       0.00000000
Si       1.30189680      -1.42459308       1.33718185       0.00000000
Si      -1.35573525      -1.36469475      -1.35601929       0.00000000
Si      -1.30383531       1.40157531       1.39248443       0.00000000
Si       0.00237834       2.70624141      -2.71355941       0.00000000
Si      -2.71062342      -0.00720018      -2.71428526       0.00000000
Si      -2.71803537      -2.70814734       0.02142975       0.00000000
Si      -2.45920356      -0.01588275       2.94572656       0.00000000
Si       2.72699487       2.70174537       0.02142975       0.00000000
Si       2.70632286      -2.72349252      -0.00895211       0.00000000
