10
Lattice="16.28999089631971 0.0 0.0 0.0 16.28999089631971 0.0 0.0 0.0 34.56409401068381" Properties=species:S:1:pos:R:3:initial_magmoms:R:1 pbc="T T T"
Si      -0.34552719      -2.27198259      -0.46143091       0.00000000
Si       0.16011441      -0.08936694       2.36708874       0.00000000
Si      -2.03465358       1.23406524       0.10438362       0.00000000
Si       1.69138323       1.07667126      -1.33379457       0.00000000
Si      -1.84093290       2.55492360      -1.79964969       0.00000000
Si      -1.73416824      -1.50863319       2.87531946       0.00000000
Si      -0.30348270       2.11265010       3.04641182       0.00000000
Si       1.36908395      -3.50604783       0.61610532       0.00000000
Si      -1.83355353      -3.14564787       1.16308241       0.00000000
Si      -0.08216676      -2.68395669      -2.77936948       0.00000000
