10
Lattice="16.28999089631971 0.0 0.0 0.0 16.28999089631971 0.0 0.0 0.0 34.56409401068381" Properties=species:S:1:pos:R:3:initial_magmoms:R:1 pbc="T T T"
Si       1.35477414      -1.34773686      -1.34945211       0.00000000
Si      -1.28329036      -1.38992796       1.39134382       0.00000000
Si      -1.36467031       1.36334268      -1.36089283       0.00000000
Si       1.35801585       1.46158767       1.29957610       0.00000000
Si      -0.30770181       2.61226440       2.51180868       0.00000000
Si       2.68721469      -2.72647359       0.06318320       0.00000000
Si      -0.00588069      -2.70503595      -2.71031038       0.00000000
Si       2.70593190       0.01236411      -2.71065602       0.00000000
Si      -0.00708615       2.72471427      -2.71269531       0.00000000
Si      -2.72386964       0.01075140      -2.71694669       0.00000000
