10
Lattice="16.28999089631971 0.0 0.0 0.0 16.28999089631971 0.0 0.0 0.0 34.56409401068381" Properties=species:S:1:pos:R:3:initial_magmoms:R:1 pbc="T T T"
Si       1.67206166      -1.04257629      -1.30890841       0.00000000
Si      -0.89208927       1.80603225      -1.29224850       0.00000000
Si       0.70498233       0.69366078       2.24445526       0.00000000
Si      -1.63289331      -1.69528401      -0.69698535       0.00000000
Si      -1.81152945      -1.25713188       2.80726272       0.00000000
Si       2.27167375       2.40620146       1.64127692       0.00000000
Si      -1.37039625       1.46070379       3.11533266       0.00000000
Si       1.89942282      -3.17353635      -0.23113023       0.00000000
Si      -1.82661399      -3.01614237       1.20704797       0.00000000
Si      -2.61291600       2.98156589      -0.08834587       0.00000000
