10
Lattice="16.28999089631971 0.0 0.0 0.0 16.28999089631971 0.0 0.0 0.0 34.56409401068381" Properties=species:S:1:pos:R:3:initial_magmoms:R:1 pbc="T T T"
Si       2.11001831       0.93854835       0.09311572       0.00000000
Si      -0.99105102       0.08775423      -2.12984066       0.00000000
Si       0.37426275      -2.25854334       0.53971863       0.00000000
Si      -1.52489061       1.21021668       1.40140197       0.00000000
Si      -2.73789288      -1.29977910      -1.45843276       0.00000000
Si      -1.50141672      -3.13036785      -0.54967309       0.00000000
Si       0.64239615      -2.06549055       2.91579404       0.00000000
Si       2.36651902       1.90044027      -2.02386709       0.00000000
Si       1.91364561       2.48777200       1.87168130       0.00000000
Si      -0.30136500       3.21538440       1.80721923       0.00000000
