10
Lattice="16.28999089631971 0.0 0.0 0.0 16.28999089631971 0.0 0.0 0.0 34.56409401068381" Properties=species:S:1:pos:R:3:initial_magmoms:R:1 pbc="T T T"
Si      -1.35431529      -1.34807895       1.38494600       0.00000000
Si       1.36426647       1.36629117       1.38729636       0.00000000
Si       1.26765537      -1.49139837      -1.41337153       0.00000000
Si      -1.43161134       1.31272965      -1.46795863       0.00000000
Si      -2.70987135      -2.70148473       0.00310040       0.00000000
Si      -2.70399066       2.71839375       0.01454112       0.00000000
Si       2.71315829       2.71034649       0.01015494       0.00000000
Si       2.73101213      -2.70754461       0.01317930       0.00000000
Si       2.62002836      -0.19538226      -2.82155640       0.00000000
Si       0.00649828      -2.70971118       2.74397237       0.00000000
