10
Lattice="16.28999089631971 0.0 0.0 0.0 16.28999089631971 0.0 0.0 0.0 34.56409401068381" Properties=species:S:1:pos:R:3:initial_magmoms:R:1 pbc="T T T"
Si       1.35788716       1.35713619      -1.35722904       0.00000000
Si      -1.35619495       1.35565380       1.36054719       0.00000000
Si      -1.35737859      -1.35821133      -1.35712535       0.00000000
Si       1.35798490      -1.35966114       1.35847335       0.00000000
Si       2.71464868       0.00006516      -2.71476915       0.00000000
Si      -0.00057830       2.71513575      -2.71511479       0.00000000
Si       0.00017593      -2.71559187      -2.71466546       0.00000000
Si       2.71554463      -2.71472850      -0.00010369       0.00000000
Si      -2.71463632       2.71573848       0.00044933       0.00000000
Si      -2.71577662       0.00053757      -2.71494197       0.00000000
