10
Lattice="16.28999089631971 0.0 0.0 0.0 16.28999089631971 0.0 0.0 0.0 34.56409401068381" Properties=species:S:1:pos:R:3:initial_magmoms:R:1 pbc="T T T"
Si       1.20914154      -1.43769024      -1.38968474       0.00000000
Si      -1.53764242      -1.37228589       1.16232200       0.00000000
Si      -1.51791849       1.29037977      -1.35688340       0.00000000
Si       1.46836431       1.25441145       1.51898909       0.00000000
Si       2.54721843      -0.07710057      -2.73951706       0.00000000
Si       2.66062941      -2.63241513       0.02260493       0.00000000
Si      -0.23457600       2.57062716       2.77795235       0.00000000
Si      -0.16377966       2.63797002      -2.74179829       0.00000000
Si      -1.10825757       0.47061810       3.65321939       0.00000000
Si      -0.46449306      -2.90442555       2.48280939       0.00000000
