10
Lattice="16.28999089631971 0.0 0.0 0.0 16.28999089631971 0.0 0.0 0.0 34.56409401068381" Properties=species:S:1:pos:R:3:initial_magmoms:R:1 pbc="T T T"
Si      -0.48575151       0.07118730      -2.24818819       0.00000000
Si      -1.16756946       1.64838510       1.13953669       0.00000000
Si       1.51741350      -1.58731389       0.79331553       0.00000000
Si      -2.41940383       0.07477110       2.32640129       0.00000000
Si       1.37920914      -3.04443810      -1.40178218       0.00000000
Si      -0.50699367      -2.23427124      -2.84438458       0.00000000
Si       0.23345199      -2.79562464       2.33938011       0.00000000
Si       2.89660635      -0.14193477       2.28099441       0.00000000
Si       0.47385981       2.89237095       2.25377517       0.00000000
Si      -1.01872773      -1.28562309       3.70082597       0.00000000
