10
Lattice="10.86 0.0 0.0 0.0 10.86 0.0 0.0 0.0 10.86" Properties=species:S:1:pos:R:3:initial_magmoms:R:1 pbc="T T T"
Si      -1.61454534      -1.33015452       1.09748988       0.00000000
Si       1.50781326       1.33090386       1.24087446       0.00000000
Si       1.10045466      -1.33015452      -1.61751012       0.00000000
Si      -1.61454534       1.38484548      -1.61751012       0.00000000
Si       2.53481088      -0.02413092       2.59221684       0.00000000
Si      -0.25704534      -2.68765452       2.45498988       0.00000000
Si       2.45795466      -2.68765452      -0.26001012       0.00000000
Si      -0.14637108       2.76795336       2.60656290       0.00000000
Si      -2.97204534       0.02734548       2.45498988       0.00000000
Si       2.36890266       0.03455652      -3.07873398       0.00000000
