10
Lattice="10.86 0.0 0.0 0.0 10.86 0.0 0.0 0.0 10.86" Properties=species:S:1:pos:R:3:initial_magmoms:R:1 pbc="T T T"
Si       1.36025844      -1.41643722      -1.20059472       0.00000000
Si       1.36025844       1.29856278       1.51440528       0.00000000
Si      -1.35474156      -1.41643722       1.51440528       0.00000000
Si      -0.11577846       2.50488072      -2.57090952       0.00000000
Si       2.71775844      -0.05893722      -2.55809472       0.00000000
Si       0.00275844      -2.77393722      -2.55809472       0.00000000
Si       2.71775844       2.65606278       0.15690528       0.00000000
Si      -2.80129356      -0.05172618      -2.66181858       0.00000000
Si      -2.71224156      -2.77393722       0.15690528       0.00000000
Si       2.71775844      -2.77393722       0.15690528       0.00000000
