10
Lattice="10.86 0.0 0.0 0.0 10.86 0.0 0.0 0.0 10.86" Properties=species:S:1:pos:R:3:initial_magmoms:R:1 pbc="T T T"
Si      -1.26844800       1.35028896      -1.25377614       0.00000000
Si       1.44655200      -1.36471104      -1.25377614       0.00000000
Si      -1.26844800      -1.36471104       1.46122386       0.00000000
Si      -2.62594800      -0.00721104      -2.61127614       0.00000000
Si       2.68551510       2.55660690       0.09090906       0.00000000
Si       0.08905200       2.70778896      -2.61127614       0.00000000
Si      -2.51128812       2.80043562       0.22312956       0.00000000
Si       0.08905200      -2.72221104      -2.61127614       0.00000000
Si      -2.62594800      -2.72221104       0.10372386       0.00000000
Si       2.80405200      -0.00721104      -2.61127614       0.00000000
