10
Lattice="16.28999089631971 0.0 0.0 0.0 16.28999089631971 0.0 0.0 0.0 34.2284985734139" Properties=species:S:1:pos:R:3:initial_magmoms:R:1 pbc="T T T"
Si      -1.87763427      -0.74658440      -1.14795603       0.00000000
Si      -1.31872437       0.21037720       1.91782385       0.00000000
Si       0.83258190       1.97039930      -1.14443049       0.00000000
Si       1.63507617      -1.84477475       0.16936271       0.00000000
Si      -0.48962853      -2.04427838      -2.49645694       0.00000000
Si      -1.48623444      -2.11636163       2.20106483       0.00000000
Si       2.25158751       0.69357281      -2.49074078       0.00000000
Si       3.47560182      -0.79016015      -1.06156325       0.00000000
Si       0.72231489      -3.56055158      -1.08114196       0.00000000
Si       1.11290022      -2.68374233       2.48656490       0.00000000
