10
Lattice="16.28999089631971 0.0 0.0 0.0 16.28999089631971 0.0 0.0 0.0 34.2284985734139" Properties=species:S:1:pos:R:3:initial_magmoms:R:1 pbc="T T T"
Si      -1.87444143       1.29112667       0.46167425       0.00000000
Si      -0.69871068      -2.05479765      -0.84308262       0.00000000
Si       0.06460614      -0.22679901       2.33630170       0.00000000
Si       2.07805014       1.33169691      -0.95569444       0.00000000
Si       2.34282780      -0.60954885       2.09440877       0.00000000
Si      -0.54442809       3.21725627       0.32349372       0.00000000
Si      -0.17653473      -1.21583007      -3.16028481       0.00000000
Si      -3.13033527       0.83932189      -1.41182367       0.00000000
Si       0.10379988      -3.43477242       1.19953840       0.00000000
Si       3.59518671       0.77083710       0.77910952       0.00000000
