10
Lattice="16.28999089631971 0.0 0.0 0.0 16.28999089631971 0.0 0.0 0.0 34.2284985734139" Properties=species:S:1:pos:R:3:initial_magmoms:R:1 pbc="T T T"
Si      -0.75862530      -1.63437570       1.51290048       0.00000000
Si      -1.37077092      -0.05742225      -1.92374538       0.00000000
Si      -0.64814652       2.06474121       0.95261388       0.00000000
Si       2.28289689      -0.38253807      -0.48861209       0.00000000
Si       0.37962216       0.33334227      -3.41997657       0.00000000
Si       3.07719729       0.46874475       1.52166298       0.00000000
Si      -2.99382507       1.43702235       1.34795326       0.00000000
Si      -0.76173669      -3.50147753       0.08906260       0.00000000
Si      -2.68400556      -0.62739306       2.51213360       0.00000000
Si      -0.10904526       3.68668764      -0.70206113       0.00000000
