10
Lattice="16.28999089631971 0.0 0.0 0.0 16.28999089631971 0.0 0.0 0.0 34.2284985734139" Properties=species:S:1:pos:R:3:initial_magmoms:R:1 pbc="T T T"
Si       1.35777150       1.35694071      -1.35712650       0.00000000
Si      -1.35834165      -1.35674523      -1.35712650       0.00000000
Si      -1.35749457       1.35708732       1.35798221       0.00000000
Si       1.35783666      -1.35760860       1.35740033       0.00000000
Si      -2.71272972      -0.00298107      -2.71408185       0.00000000
Si      -0.00213399       2.71373481       2.71497180       0.00000000
Si       0.00114030       2.71296918      -2.71630671       0.00000000
Si       2.71495656      -0.00330687       2.71432145       0.00000000
Si      -2.71456723       2.71479366      -0.00027383       0.00000000
Si      -2.71503801      -2.71474968       0.00030806       0.00000000
