10
Lattice="16.28999089631971 0.0 0.0 0.0 16.28999089631971 0.0 0.0 0.0 34.2284985734139" Properties=species:S:1:pos:R:3:initial_magmoms:R:1 pbc="T T T"
Si      -0.04261464      -1.86750189       1.40658671       0.00000000
Si      -1.34601012       1.72558341       0.95394879       0.00000000
Si      -1.05257835      -0.71752563      -2.07797908       0.00000000
Si       2.38816287       0.63684126       0.61755092       0.00000000
Si       2.10004164      -0.02432097      -1.54476723       0.00000000
Si       1.73701899      -3.08043900       0.50291961       0.00000000
Si      -0.24842250       2.34147573       3.03004530       0.00000000
Si       2.67276546      -2.31352209      -1.50892997       0.00000000
Si      -0.51347709       0.90442080      -3.73265408       0.00000000
Si      -1.55232297       3.49598061      -0.66406747       0.00000000
