10
Lattice="16.28999089631971 0.0 0.0 0.0 16.28999089631971 0.0 0.0 0.0 34.2284985734139" Properties=species:S:1:pos:R:3:initial_magmoms:R:1 pbc="T T T"
Si      -1.41165882       1.28909286      -1.27712076       0.00000000
Si       1.32291090       1.38232053       1.36810358       0.00000000
Si      -1.39893633      -1.33498179       1.36587873       0.00000000
Si       1.37253024      -1.34144892      -1.66356073       0.00000000
Si      -2.43612063      -0.18971334      -2.87357789       0.00000000
Si       2.65512339      -2.68363089      -0.01330805       0.00000000
Si       2.67138081       2.71023246      -0.00302922       0.00000000
Si       2.67372657       0.02627577       2.72410054       0.00000000
Si      -0.04036662      -2.69016318       2.72471665       0.00000000
Si      -2.74349664      -2.68568343       0.00483991       0.00000000
