10
Lattice="16.28999089631971 0.0 0.0 0.0 16.28999089631971 0.0 0.0 0.0 34.2284985734139" Properties=species:S:1:pos:R:3:initial_magmoms:R:1 pbc="T T T"
Si      -1.35684297      -1.35646830      -1.35777684       0.00000000
Si       1.35672894      -1.35738054       1.35753724       0.00000000
Si      -1.35782037       1.35734796       1.35740033       0.00000000
Si       1.35721764       1.35979146      -1.35671576       0.00000000
Si      -0.00014661       2.71503801      -2.70997443       0.00000000
Si       2.71275741      -0.00333945      -2.71572482       0.00000000
Si       2.71384884       2.71484253       0.00061611       0.00000000
Si       2.71430496      -2.71498914      -0.00013691       0.00000000
Si       2.71458189      -0.00125433       2.71483488       0.00000000
Si      -0.00187335       2.71533123       2.71456105       0.00000000
