10
Lattice="16.28999089631971 0.0 0.0 0.0 16.28999089631971 0.0 0.0 0.0 34.2284985734139" Properties=species:S:1:pos:R:3:initial_magmoms:R:1 pbc="T T T"
Si       0.60137793      -0.82075536       2.13688636       0.00000000
Si      -0.90435564      -1.79963775      -1.25153152       0.00000000
Si       1.80504603       1.01830419      -1.20292703       0.00000000
Si      -1.73529225       1.79932824       0.28105036       0.00000000
Si      -2.16575550      -0.32107590      -2.63333678       0.00000000
Si       0.56723409       2.40885117      -2.63713615       0.00000000
Si       2.80021842      -1.85844465       1.64889038       0.00000000
Si      -3.57655095       0.89246394      -1.08634469       0.00000000
Si       3.20632812       2.16293733       0.27283551       0.00000000
Si      -0.93840174       3.57475905      -1.23253469       0.00000000
