10
Lattice="16.28999089631971 0.0 0.0 0.0 16.28999089631971 0.0 0.0 0.0 34.2284985734139" Properties=species:S:1:pos:R:3:initial_magmoms:R:1 pbc="T T T"
Si       0.31657986       1.76120964       1.53836650       0.00000000
Si       0.20631285      -1.77039720       1.61801626       0.00000000
Si      -2.25875511       0.44434233      -0.74022592       0.00000000
Si       1.12492224      -0.37690173      -2.11179686       0.00000000
Si      -1.78220745       1.31440752       2.68543258       0.00000000
Si       0.28608498       3.84295761       0.38948630       0.00000000
Si       1.55232297      -3.49598061       0.66406747       0.00000000
Si      -3.56335605      -1.42490259      -0.82244282       0.00000000
Si       0.20191455       0.97557552      -3.81973143       0.00000000
Si      -1.91834298      -2.63933838       2.33866347       0.00000000
