10
Lattice="16.28999089631971 0.0 0.0 0.0 16.28999089631971 0.0 0.0 0.0 34.2284985734139" Properties=species:S:1:pos:R:3:initial_magmoms:R:1 pbc="T T T"
Si      -0.31657986      -1.76120964      -1.53836650       0.00000000
Si      -0.03049488       2.08174797      -1.14888020       0.00000000
Si      -2.09878731      -0.44680212       1.14706609       0.00000000
Si       1.98667953       0.40881384       1.40052826       0.00000000
Si      -0.11026701      -3.53160684       0.07964976       0.00000000
Si       3.41451432       1.07585676      -0.35340945       0.00000000
Si      -1.85587083       0.90906345       2.98818382       0.00000000
Si       2.18329983       2.32754778      -1.82752902       0.00000000
Si      -2.57533497      -1.31686731      -2.27859242       0.00000000
Si       0.98732061      -2.91571452       2.15574627       0.00000000
