10
Lattice="16.28999089631971 0.0 0.0 0.0 16.28999089631971 0.0 0.0 0.0 34.2284985734139" Properties=species:S:1:pos:R:3:initial_magmoms:R:1 pbc="T T T"
Si       1.44422253      -1.12832685       1.42578890       0.00000000
Si      -0.86503158      -1.75285287      -1.32597855       0.00000000
Si       1.27552329       0.56474172      -1.95985647       0.00000000
Si      -1.32126561       1.57837068       1.27087063       0.00000000
Si      -0.41215329       2.18289258      -2.29077778       0.00000000
Si       3.12631164       0.81450000      -0.34663220       0.00000000
Si      -2.30334084       2.39480919      -0.73314062       0.00000000
Si      -0.14656113      -2.19530556       2.94479374       0.00000000
Si      -2.75800940      -2.51569728      -0.02409688       0.00000000
Si       2.25310248      -2.97409788      -0.14458126       0.00000000
