10
Lattice="16.28999089631971 0.0 0.0 0.0 16.28999089631971 0.0 0.0 0.0 34.2284985734139" Properties=species:S:1:pos:R:3:initial_magmoms:R:1 pbc="T T T"
Si      -0.77168988      -1.76728581       1.27269673       0.00000000
Si       1.89468990       0.92996352       1.16571892       0.00000000
Si      -1.54909755       1.84933854      -0.10314490       0.00000000
Si      -0.11406258      -1.30326516      -2.09618150       0.00000000
Si      -2.12245668      -0.33063813       2.55965476       0.00000000
Si       0.93599082       0.34560864      -3.36034335       0.00000000
Si       0.61763535       2.39547679       2.55341490       0.00000000
Si      -3.42896355       0.95094504       1.07316843       0.00000000
Si      -1.79615169      -3.24609201      -0.32376040       0.00000000
Si      -0.69947631       3.69668874       1.11163444       0.00000000
