10
Lattice="16.28999089631971 0.0 0.0 0.0 16.28999089631971 0.0 0.0 0.0 34.2284985734139" Properties=species:S:1:pos:R:3:initial_magmoms:R:1 pbc="T T T"
Si      -0.64001781       1.59997122       1.54719746       0.00000000
Si       2.21379471       0.24579981      -0.67864882       0.00000000
Si      -0.91540026       0.60774732      -2.05528557       0.00000000
Si       0.03049488      -2.08174797       1.14888020       0.00000000
Si       2.01717441      -1.67293413       2.54940846       0.00000000
Si       3.44500920      -1.00589121       0.79547075       0.00000000
Si       0.10006947       2.66730831      -2.66694919       0.00000000
Si      -2.93298192       2.13444612       1.12009401       0.00000000
Si       2.29850271      -0.02479338      -3.03918432       0.00000000
Si       0.13926321      -0.54066510      -3.80371249       0.00000000
