10
Lattice="16.28999089631971 0.0 0.0 0.0 16.28999089631971 0.0 0.0 0.0 34.2284985734139" Properties=species:S:1:pos:R:3:initial_magmoms:R:1 pbc="T T T"
Si       1.27910709      -1.92116115       0.42891756       0.00000000
Si      -2.27996469      -0.10520082      -0.73194262       0.00000000
Si       1.24097220       1.12823467      -1.71820313       0.00000000
Si       1.60412517       1.61739079       1.21795335       0.00000000
Si       2.92100877      -0.40223268       1.35086268       0.00000000
Si      -0.16461045       2.86585802      -2.47102515       0.00000000
Si      -3.43510488       1.50948746       0.67457563       0.00000000
Si      -1.20598128      -0.41743125       3.68611600       0.00000000
Si       0.22905369      -3.57003495       1.69307940       0.00000000
Si      -3.30941124      -2.20164237      -0.25106618       0.00000000
