10
Lattice="16.28999089631971 0.0 0.0 0.0 16.28999089631971 0.0 0.0 0.0 34.2284985734139" Properties=species:S:1:pos:R:3:initial_magmoms:R:1 pbc="T T T"
Si       1.75601313       1.08729560      -1.08645217       0.00000000
Si      -1.31201289       1.39675673       1.42729838       0.00000000
Si       1.40012550      -1.30864479       1.43624229       0.00000000
Si      -1.00585863      -1.76492769      -1.29574933       0.00000000
Si       0.43175016       2.02384028      -2.87046651       0.00000000
Si       3.43660356      -0.75363893      -1.26543378       0.00000000
Si       2.63445138      -2.69896371       0.00766377       0.00000000
Si      -2.72834694       2.62793864      -0.01149051       0.00000000
Si       0.69134760      -3.51996342      -1.31905895       0.00000000
Si      -2.65658949       0.04500112       2.79844146       0.00000000
