10
Lattice="16.28999089631971 0.0 0.0 0.0 16.28999089631971 0.0 0.0 0.0 34.2284985734139" Properties=species:S:1:pos:R:3:initial_magmoms:R:1 pbc="T T T"
Si       1.35329175      -1.35760840      -1.36451986       0.00000000
Si      -1.36329381       1.35957567      -1.36428026       0.00000000
Si      -1.36943514      -1.36638871       1.36972259       0.00000000
Si       1.36840887       1.35149909       1.38981473       0.00000000
Si      -0.13235625       2.55186847       2.84901067       0.00000000
Si       2.71280628      -2.71249657      -0.00225908       0.00000000
Si       2.71231758       2.71585990      -0.00047920       0.00000000
Si      -2.71824714      -2.71231738      -0.00482622       0.00000000
Si      -2.71538010       2.71698391      -0.00838599       0.00000000
Si       2.71212210       0.00141127      -2.72113293       0.00000000
