10
Lattice="16.28999089631971 0.0 0.0 0.0 16.28999089631971 0.0 0.0 0.0 34.2284985734139" Properties=species:S:1:pos:R:3:initial_magmoms:R:1 pbc="T T T"
Si      -2.17487043      -0.35170110      -0.78003369       0.00000000
Si       1.02639869      -2.10064763      -0.46461790       0.00000000
Si       0.63684126       1.55022156      -1.71553331       0.00000000
Si       0.73564663       0.81018315       2.16197586       0.00000000
Si      -1.43634699      -1.34089506      -2.83833137       0.00000000
Si       0.92456990      -1.92220371      -2.85150935       0.00000000
Si       2.65440500       2.13457644       1.12334572       0.00000000
Si      -1.40207283       2.73318507      -2.07890325       0.00000000
Si      -3.20755869       1.78184907      -0.84226114       0.00000000
Si      -3.34253763      -1.81097559       0.62258251       0.00000000
