10
Lattice="16.28999089631971 0.0 0.0 0.0 16.28999089631971 0.0 0.0 0.0 34.2284985734139" Properties=species:S:1:pos:R:3:initial_magmoms:R:1 pbc="T T T"
Si       1.31688360      -2.01962347       0.13290933       0.00000000
Si      -0.74085291       1.11070270       2.09967996       0.00000000
Si      -1.60412517      -1.61739079      -1.21795335       0.00000000
Si       1.43444853       0.96941953      -2.36584092       0.00000000
Si      -0.36315297      -0.48915612      -2.93615648       0.00000000
Si      -2.19726036       2.65517389       0.95254542       0.00000000
Si      -0.32501808      -3.53855194      -0.78903579       0.00000000
Si      -0.84973527       3.53502937      -0.76887519       0.00000000
Si       2.35089135      -1.94138260       2.39452441       0.00000000
Si       3.33402543      -0.44153230      -2.45658072       0.00000000
