10
Lattice="16.28999089631971 0.0 0.0 0.0 16.28999089631971 0.0 0.0 0.0 34.2284985734139" Properties=species:S:1:pos:R:3:initial_magmoms:R:1 pbc="T T T"
Si       0.18461457      -1.34780202       1.92073327       0.00000000
Si       0.78525945      -1.51360164      -1.68941695       0.00000000
Si       1.35627282       1.94629662      -0.41272747       0.00000000
Si      -2.19884049       1.03768929       0.48799598       0.00000000
Si       1.83244581       0.13667310      -3.03117484       0.00000000
Si       1.71090612       2.52925056       1.88893498       0.00000000
Si      -2.80021842       1.85844465      -1.64889038       0.00000000
Si      -1.93202658      -0.96381414       3.07454237       0.00000000
Si       3.32166132       1.21476159      -1.60168926       0.00000000
Si       1.42216587      -0.37214505       3.65423655       0.00000000
