10
Lattice="16.28999089631971 0.0 0.0 0.0 16.28999089631971 0.0 0.0 0.0 34.2284985734139" Properties=species:S:1:pos:R:3:initial_magmoms:R:1 pbc="T T T"
Si      -1.72097334       0.84126447      -1.41415121       0.00000000
Si      -1.28394522      -1.03824315       1.72569374       0.00000000
Si       1.27879758       1.53529992       1.36623612       0.00000000
Si       1.31173596      -1.71113418      -1.17776907       0.00000000
Si      -2.69079849      -2.39581917       0.47378365       0.00000000
Si      -2.52985329       2.68703550       0.15621895       0.00000000
Si      -3.62377566      -0.74666844      -0.87248492       0.00000000
Si       2.95862238      -0.67085478      -2.46431636       0.00000000
Si       3.16250802       2.33616519       0.01129541       0.00000000
Si       2.72227077      -2.83287987       0.33178291       0.00000000
