10
Lattice="16.28999089631971 0.0 0.0 0.0 16.28999089631971 0.0 0.0 0.0 34.2284985734139" Properties=species:S:1:pos:R:3:initial_magmoms:R:1 pbc="T T T"
Si      -0.52922952      -2.25601839      -0.38575539       0.00000000
Si       2.19721149      -0.20864232       0.81860923       0.00000000
Si      -0.00544086       1.59746256      -1.76780025       0.00000000
Si      -1.13591799       0.71107479       1.97536199       0.00000000
Si      -0.73862118       3.44018736      -0.48241673       0.00000000
Si       2.18393514      -2.30676174       1.91101237       0.00000000
Si      -2.16645597       2.77314444       1.27152098       0.00000000
Si      -3.16581489      -0.55138392       2.02673899       0.00000000
Si       1.11628854      -3.70768545       0.39181384       0.00000000
Si       2.17352583       2.43059832      -2.18312909       0.00000000
