10
Lattice="16.28999089631971 0.0 0.0 0.0 16.28999089631971 0.0 0.0 0.0 34.2284985734139" Properties=species:S:1:pos:R:3:initial_magmoms:R:1 pbc="T T T"
Si       1.35668952       1.35739683       1.35674998       0.00000000
Si      -1.35848437      -1.35746199       1.35681844       0.00000000
Si       1.35852703      -1.36037790      -1.35705804       0.00000000
Si      -1.35982015       1.35845568      -1.35948827       0.00000000
Si       2.71291510      -2.71414206      -0.00010269       0.00000000
Si       2.71376218      -0.00030951       2.71500602       0.00000000
Si      -0.00132608       2.71516833       2.71445837       0.00000000
Si      -0.00042600      -2.71536381       2.71438991       0.00000000
Si      -2.71550653       2.71441899      -0.00003423       0.00000000
Si      -2.71628845       0.00022806       2.71466374       0.00000000
