10
Lattice="16.28999089631971 0.0 0.0 0.0 16.28999089631971 0.0 0.0 0.0 34.2284985734139" Properties=species:S:1:pos:R:3:initial_magmoms:R:1 pbc="T T T"
Si       1.25235891       1.38038595      -1.31529925       0.00000000
Si       0.82046214       0.09374895       2.15393216       0.00000000
Si      -0.07978842      -2.30935185      -0.13034220       0.00000000
Si      -2.27822166       0.38274984       0.24189293       0.00000000
Si      -0.16449642      -2.03875866       2.23019330       0.00000000
Si      -2.34282780       0.60954885      -2.09440877       0.00000000
Si       0.76641192       3.50168930      -0.33578176       0.00000000
Si      -2.27511027       2.24985167       1.66573081       0.00000000
Si      -0.26477766       1.94124576      -3.05010321       0.00000000
Si      -0.51847812       1.67820299       3.17907627       0.00000000
