10
Lattice="16.28999089631971 0.0 0.0 0.0 16.28999089631971 0.0 0.0 0.0 34.2284985734139" Properties=species:S:1:pos:R:3:initial_magmoms:R:1 pbc="T T T"
Si       1.37743353       1.75405737      -0.72074990       0.00000000
Si      -0.17979273      -1.86461856      -1.42431708       0.00000000
Si      -2.12110461       1.11106338       0.07978667       0.00000000
Si       0.83144160      -1.22064228       1.90803449       0.00000000
Si      -1.54697985      -3.24157968       0.10802520       0.00000000
Si      -3.37346352      -0.26932257       1.39508592       0.00000000
Si       0.52116597      -3.48021189       1.27295857       0.00000000
Si       1.41534036       3.35514446       0.99180553       0.00000000
Si       3.55563459       0.95888057      -1.26207390       0.00000000
Si       3.14848233      -0.79799823       2.20712328       0.00000000
