10
Lattice="16.28999089631971 0.0 0.0 0.0 16.28999089631971 0.0 0.0 0.0 34.2284985734139" Properties=species:S:1:pos:R:3:initial_magmoms:R:1 pbc="T T T"
Si       1.23121449      -1.25169102       1.47411957       0.00000000
Si      -2.21379471      -0.24579981       0.67864882       0.00000000
Si       0.98495856       2.13250761      -0.07626114       0.00000000
Si       0.08470800      -0.27059319      -2.36053549       0.00000000
Si       0.16449642       2.03875866      -2.23019330       0.00000000
Si      -3.12919497       0.36194751      -1.37663675       0.00000000
Si       1.96439481      -3.09441582       0.18873605       0.00000000
Si      -2.18329983      -2.32754778       1.82752902       0.00000000
Si       2.99335266       0.19981314       2.13459305       0.00000000
Si       3.26651967       1.71973530       0.31545002       0.00000000
