10
Lattice="16.28999089631971 0.0 0.0 0.0 16.28999089631971 0.0 0.0 0.0 34.2284985734139" Properties=species:S:1:pos:R:3:initial_magmoms:R:1 pbc="T T T"
Si       1.35394433      -1.35600648       1.35863255       0.00000000
Si      -1.35769005      -1.35705506      -1.35685267       0.00000000
Si       1.35773256       1.35773566      -1.35726341       0.00000000
Si      -1.35749457       1.35739357       1.36380106       0.00000000
Si       2.71278577       2.71321027      -0.00020537       0.00000000
Si      -0.00079821      -2.71384299      -2.71428723       0.00000000
Si       2.71437731       0.00095296      -2.71432145       0.00000000
Si       2.71448319      -2.71473894       0.00041074       0.00000000
Si      -2.71528236       0.00006190      -2.71456105       0.00000000
Si      -0.00032580       2.71563748      -2.71483488       0.00000000
