10
Lattice="16.28999089631971 0.0 0.0 0.0 16.28999089631971 0.0 0.0 0.0 34.2284985734139" Properties=species:S:1:pos:R:3:initial_magmoms:R:1 pbc="T T T"
Si       1.35749457      -1.35739357      -1.36380106       0.00000000
Si      -1.35845568       1.35834165      -1.36339032       0.00000000
Si       1.34249148       1.35892809       1.39529130       0.00000000
Si      -1.34390871      -1.36436081       1.39029393       0.00000000
Si       2.71143890      -2.71340006      -0.00516851       0.00000000
Si      -2.71231758      -2.71585990       0.00047920       0.00000000
Si      -2.71236645       2.71634121      -0.00352554       0.00000000
Si       2.72078838       2.71368594      -0.00273828       0.00000000
Si      -0.00019548      -2.71444863      -2.72065373       0.00000000
Si      -2.71539639       0.00070047      -2.72089333       0.00000000
