10
Lattice="16.28999089631971 0.0 0.0 0.0 16.28999089631971 0.0 0.0 0.0 34.2284985734139" Properties=species:S:1:pos:R:3:initial_magmoms:R:1 pbc="T T T"
Si       0.04701294      -0.06390730      -2.37563027       0.00000000
Si      -2.17820106       0.79517680       0.54132401       0.00000000
Si       1.94309468       1.47020997      -0.40673748       0.00000000
Si       0.56184210      -2.02181936       1.31653148       0.00000000
Si       2.05157304       1.75971585       2.03676795       0.00000000
Si       1.83490464      -1.81783598      -2.48998775       0.00000000
Si       2.86908344      -1.96757366       1.72001724       0.00000000
Si      -3.55563459      -0.95888057       1.26207390       0.00000000
Si      -0.00089595       2.25568119       3.19156968       0.00000000
Si      -0.40715226      -1.75687880       3.46919718       0.00000000
