10
Lattice="16.28999089631971 0.0 0.0 0.0 16.28999089631971 0.0 0.0 0.0 34.2284985734139" Properties=species:S:1:pos:R:3:initial_magmoms:R:1 pbc="T T T"
Si      -1.37743353      -1.75405737       0.72074990       0.00000000
Si       0.03790683       1.60108708       1.71255543       0.00000000
Si       2.17820106      -0.79517680      -0.54132401       0.00000000
Si      -3.49853814      -0.64299399       0.80053657       0.00000000
Si      -0.87591330       3.53153354       0.70315644       0.00000000
Si       2.17730511       1.46050438       2.65024567       0.00000000
Si       2.22521400      -0.85908410      -2.91695428       0.00000000
Si      -1.55722626      -3.61867593      -0.70356718       0.00000000
Si       2.74004316      -2.81699616       0.77520747       0.00000000
Si      -0.54599193      -2.97469965       2.62878439       0.00000000
