10
Lattice="16.28999089631971 0.0 0.0 0.0 16.28999089631971 0.0 0.0 0.0 34.2284985734139" Properties=species:S:1:pos:R:3:initial_magmoms:R:1 pbc="T T T"
Si       0.91644282       1.52862102       1.52203950       0.00000000
Si      -2.19937806       0.81868653      -0.06599258       0.00000000
Si       0.61532217      -1.90268503       1.24129719       0.00000000
Si       1.02871350       0.09018144      -2.14376629       0.00000000
Si       3.16811178      -0.05040126      -1.20607605       0.00000000
Si       2.78549226      -1.92372194       0.20088717       0.00000000
Si       1.39370724       3.32659719       0.16607677       0.00000000
Si       0.48769002      -1.00822068       3.44027409       0.00000000
Si      -2.99367846      -0.03259629      -2.07626766       0.00000000
Si      -3.13512453       0.05176962       1.94585700       0.00000000
