10
Lattice="16.28999089631971 0.0 0.0 0.0 16.28999089631971 0.0 0.0 0.0 34.2284985734139" Properties=species:S:1:pos:R:3:initial_magmoms:R:1 pbc="T T T"
Si       1.35848437       1.35746199      -1.35681844       0.00000000
Si      -1.35780408       1.35769005       1.35784530       0.00000000
Si       1.35805836      -1.35790182       1.35757147       0.00000000
Si      -1.35773892      -1.35878148      -1.35712650       0.00000000
Si       2.71311157      -0.00242721       2.71462951       0.00000000
Si       2.71470311      -2.71468452       0.00051343       0.00000000
Si      -2.71482624       2.71490769       0.00061611       0.00000000
Si       2.71517389       2.71485882      -0.00006846       0.00000000
Si       0.00032580      -2.71563748       2.71483488       0.00000000
Si      -2.71495656      -2.71557558       0.00027383       0.00000000
