10
Lattice="16.28999089631971 0.0 0.0 0.0 16.28999089631971 0.0 0.0 0.0 34.2284985734139" Properties=species:S:1:pos:R:3:initial_magmoms:R:1 pbc="T T T"
Si       0.47726442       1.79797617      -1.35596273       0.00000000
Si      -1.75490541       0.78876180       1.31601805       0.00000000
Si      -0.91644282      -1.52862102      -1.52203950       0.00000000
Si       1.37741724      -0.96435171       2.17553036       0.00000000
Si      -0.42875280      -2.53684170       1.91823459       0.00000000
Si       2.46668067       0.67465035      -2.00031457       0.00000000
Si       1.45824822       1.33793028       2.77175691       0.00000000
Si      -2.39850702      -1.31826825       2.06551990       0.00000000
Si      -0.30112065      -3.43130605      -0.28074230       0.00000000
Si      -3.11582088      -0.70993449      -1.58803208       0.00000000
