10
Lattice="16.28999089631971 0.0 0.0 0.0 16.28999089631971 0.0 0.0 0.0 34.2284985734139" Properties=species:S:1:pos:R:3:initial_magmoms:R:1 pbc="T T T"
Si      -0.73476045       0.30705021       2.22920067       0.00000000
Si       1.03268826      -2.13355017       0.06222745       0.00000000
Si       1.80548586       0.95133600      -1.23664212       0.00000000
Si      -1.99016559       0.32210217      -1.32570472       0.00000000
Si       0.99916344       0.42670026      -3.34672755       0.00000000
Si      -1.14634359       1.27845549      -3.28326788       0.00000000
Si      -2.60840367       1.89175770       1.92223933       0.00000000
Si       3.20755869      -1.78184907       0.84226114       0.00000000
Si      -0.13497894      -3.59282466       1.46484364       0.00000000
Si      -3.40081443       1.86685029      -0.29083971       0.00000000
