10
Lattice="16.28999089631971 0.0 0.0 0.0 16.28999089631971 0.0 0.0 0.0 34.2284985734139" Properties=species:S:1:pos:R:3:initial_magmoms:R:1 pbc="T T T"
Si       1.33981896       1.29354003       1.43146198       0.00000000
Si      -1.24146090      -1.36919079       1.48174367       0.00000000
Si      -1.59674580       1.50697161      -1.01764806       0.00000000
Si       1.52585076      -1.04018166      -1.56581777       0.00000000
Si      -0.23547195       2.64974769      -2.52250484       0.00000000
Si       2.74969403      -2.65157217      -0.24048957       0.00000000
Si      -2.34431019      -3.06776538       0.32899428       0.00000000
Si       0.02397888       2.68444539       2.83673431       0.00000000
Si      -2.68019370      -0.03282435       2.84107449       0.00000000
Si       2.88768662       2.64069045       0.15550615       0.00000000
