10
Lattice="16.28999089631971 0.0 0.0 0.0 16.28999089631971 0.0 0.0 0.0 34.2284985734139" Properties=species:S:1:pos:R:3:initial_magmoms:R:1 pbc="T T T"
Si       0.73476045      -0.30705021      -2.22920067       0.00000000
Si       1.55536920       1.26843714       1.32320604       0.00000000
Si      -1.87364322       1.58470749      -0.30696135       0.00000000
Si      -0.51645816      -2.36975517       0.88583404       0.00000000
Si      -2.10999483      -0.57731760       2.48913793       0.00000000
Si      -3.52052964       0.54442809       0.97958595       0.00000000
Si       1.76744871      -2.44060038      -2.16697323       0.00000000
Si      -1.25540514       0.01505196      -3.55490539       0.00000000
Si       2.91664305       2.41121322      -0.18165074       0.00000000
Si       0.16236243       2.81321784       2.54311284       0.00000000
