10
Lattice="16.28999089631971 0.0 0.0 0.0 16.28999089631971 0.0 0.0 0.0 34.2284985734139" Properties=species:S:1:pos:R:3:initial_magmoms:R:1 pbc="T T T"
Si      -2.38340619      -0.14533938      -0.10987354       0.00000000
Si       0.98595225      -1.91879910       1.04253219       0.00000000
Si       0.75548133       1.85132592      -1.32909334       0.00000000
Si      -0.50617917       1.86978249       1.50283730       0.00000000
Si      -2.57432499       2.10841470       0.33790393       0.00000000
Si       1.18884420      -0.83919564       3.16863657       0.00000000
Si       3.18484868      -1.69150473       0.23176129       0.00000000
Si       2.99160963       2.11828644      -0.56514706       0.00000000
Si      -2.73803949      -0.72829332      -2.41153599       0.00000000
Si      -0.42194358       0.78063309       3.62856516       0.00000000
