10
Lattice="16.28999089631971 0.0 0.0 0.0 16.28999089631971 0.0 0.0 0.0 34.2284985734139" Properties=species:S:1:pos:R:3:initial_magmoms:R:1 pbc="T T T"
Si      -1.34385984      -1.35470898       1.36189111       0.00000000
Si       1.23432588      -1.39031892      -1.42857853       0.00000000
Si       1.36837629       1.35709614       1.35850248       0.00000000
Si      -1.40012550       1.30864479      -1.43624229       0.00000000
Si       2.03647806       0.55500586      -2.70167607       0.00000000
Si       0.35588763       2.39594039      -2.52269447       0.00000000
Si      -0.70877790      -2.21131863      -2.75530124       0.00000000
Si      -2.40598413      -0.45628290      -2.73199162       0.00000000
Si      -2.71213839       2.70540152      -0.00894391       0.00000000
Si      -2.70414000      -0.00019745       2.71977063       0.00000000
