10
Lattice="16.28999089631971 0.0 0.0 0.0 16.28999089631971 0.0 0.0 0.0 34.2284985734139" Properties=species:S:1:pos:R:3:initial_magmoms:R:1 pbc="T T T"
Si       0.92980388       2.08389825       0.22655856       0.00000000
Si       1.89708779      -1.33011108       0.29313303       0.00000000
Si      -1.24734552      -0.53227575       1.90615192       0.00000000
Si      -0.79003649      -0.04929354      -2.40674399       0.00000000
Si       0.59011177      -3.28191372       0.02354922       0.00000000
Si      -1.46235723      -2.78594838       1.17835095       0.00000000
Si      -0.80490205       3.24798165      -0.74926225       0.00000000
Si       0.25966260       2.24182980      -2.68091442       0.00000000
Si       1.67169935       2.46773952       2.34085410       0.00000000
Si       3.36494711      -0.83681730      -1.56338755       0.00000000
