10
Lattice="16.28999089631971 0.0 0.0 0.0 16.28999089631971 0.0 0.0 0.0 34.2284985734139" Properties=species:S:1:pos:R:3:initial_magmoms:R:1 pbc="T T T"
Si      -1.85595228      -0.90854217      -1.21425667       0.00000000
Si       1.06798869       1.86779511      -1.06351427       0.00000000
Si       1.79209548      -1.66814487      -0.00708530       0.00000000
Si      -0.67139235      -0.17187579       2.46219419       0.00000000
Si       1.29122685      -1.80592569       2.32753920       0.00000000
Si      -0.37020654      -2.08588563      -2.63186495       0.00000000
Si       2.36410254       0.64024587      -2.62365011       0.00000000
Si       0.92950740      -3.49195698      -1.22551785       0.00000000
Si      -3.15245709      -2.31045957       0.28176916       0.00000000
Si       3.73202273      -0.71886141      -1.19885383       0.00000000
