10
Lattice="16.28999089631971 0.0 0.0 0.0 16.28999089631971 0.0 0.0 0.0 34.2284985734139" Properties=species:S:1:pos:R:3:initial_magmoms:R:1 pbc="T T T"
Si      -0.09852192      -2.16876915      -0.84948335       0.00000000
Si       2.30724134       0.05424570       0.40348577       0.00000000
Si      -0.96899436       0.26494056       2.15266571       0.00000000
Si      -0.56184210       2.02181936      -1.31653148       0.00000000
Si       3.15837755      -0.08425188      -1.88236310       0.00000000
Si      -2.33465022      -2.43572967      -1.61342964       0.00000000
Si      -3.28603509      -0.15770349       1.85357692       0.00000000
Si       0.06977007      -1.37055915       3.56086115       0.00000000
Si       2.95734266       2.08697610       1.41962777       0.00000000
Si       0.75458605      -3.81731715       0.62905170       0.00000000
