10
Lattice="16.28999089631971 0.0 0.0 0.0 16.28999089631971 0.0 0.0 0.0 34.2284985734139" Properties=species:S:1:pos:R:3:initial_magmoms:R:1 pbc="T T T"
Si       1.87834681      -0.44986464      -1.36742928       0.00000000
Si       0.46232649       0.60780175       2.28922658       0.00000000
Si      -0.65101356      -2.37241044      -0.42662424       0.00000000
Si      -1.42628724       1.85516126      -0.96599723       0.00000000
Si      -1.21826394       2.44873628       2.46820818       0.00000000
Si       0.95508270      -1.40817276      -3.34789132       0.00000000
Si       3.15423989      -2.06922096      -0.04699575       0.00000000
Si       1.27215144      -3.56324202       0.39085544       0.00000000
Si      -0.33982569      -1.33752303       3.56232412       0.00000000
Si      -2.28292947      -2.15852274       2.23560141       0.00000000
