10
Lattice="16.28999089631971 0.0 0.0 0.0 16.28999089631971 0.0 0.0 0.0 34.2284985734139" Properties=species:S:1:pos:R:3:initial_magmoms:R:1 pbc="T T T"
Si       1.81609065      -1.09191870      -1.07546003       0.00000000
Si      -0.96392817       2.02222431      -0.92191090       0.00000000
Si      -1.81190249      -1.58881257      -0.55422816       0.00000000
Si       0.20566125      -1.00445769       2.28465087       0.00000000
Si       1.87875828       1.97553717       0.79512847       0.00000000
Si       0.90715752      -1.89793161      -3.06290468       0.00000000
Si       2.74045041      -2.62971099       0.45739568       0.00000000
Si      -0.13209561       2.11295961      -3.20087983       0.00000000
Si       0.22755501       3.26793690       2.11005120       0.00000000
Si      -3.85081658      -0.40584906      -0.91759810       0.00000000
