10
Lattice="16.28999089631971 0.0 0.0 0.0 16.28999089631971 0.0 0.0 0.0 34.2284985734139" Properties=species:S:1:pos:R:3:initial_magmoms:R:1 pbc="T T T"
Si       1.22384326      -1.61139051       1.32532821       0.00000000
Si      -1.52585076       1.04018166       1.56581777       0.00000000
Si      -0.73564663      -0.81018315      -2.16197586       0.00000000
Si       1.91875838       1.32439329      -1.03863014       0.00000000
Si       3.12633607      -0.84351249      -1.00857750       0.00000000
Si      -0.18603180       2.33372169       2.99727975       0.00000000
Si       2.53777838      -0.27945495       2.92203862       0.00000000
Si       0.29075207      -2.91083078      -2.62659376       0.00000000
Si      -0.09880537       0.74003841      -3.87750917       0.00000000
Si       2.26783679      -3.04632774      -1.25238723       0.00000000
