10
Lattice="16.28999089631971 0.0 0.0 0.0 16.28999089631971 0.0 0.0 0.0 34.2284985734139" Properties=species:S:1:pos:R:3:initial_magmoms:R:1 pbc="T T T"
Si       1.23722550       1.46321667       1.54846391       0.00000000
Si       1.20757770      -2.16790578       0.03005264       0.00000000
Si      -0.20566125       1.00445769      -2.28465087       0.00000000
Si      -1.91875838      -1.32439329       1.03863014       0.00000000
Si       2.53478916      -1.62525330      -1.82725519       0.00000000
Si      -2.01756374      -0.58435488      -2.83887903       0.00000000
Si      -2.65440500      -2.13457644      -1.12334572       0.00000000
Si       2.17020267      -0.18593406       2.89473248       0.00000000
Si      -0.55692252       2.35647882       2.75995406       0.00000000
Si       1.61042940      -0.08746101      -3.36011090       0.00000000
