10
Lattice="16.28999089631971 0.0 0.0 0.0 16.28999089631971 0.0 0.0 0.0 34.2284985734139" Properties=species:S:1:pos:R:3:initial_magmoms:R:1 pbc="T T T"
Si       0.21768327       2.22953085       0.68162670       0.00000000
Si       0.84007530      -1.29634191       1.81565172       0.00000000
Si      -2.28125812      -0.22410153      -0.67505483       0.00000000
Si       1.09133226      -0.71122140      -2.03871897       0.00000000
Si      -3.08857490      -0.07312581       1.52049921       0.00000000
Si      -1.54470902      -1.28985849       2.86550882       0.00000000
Si       3.30074496      -0.76510872      -1.26385379       0.00000000
Si       0.27818433      -2.94324462      -2.12151776       0.00000000
Si      -0.46452564      -3.16558683       1.73343482       0.00000000
Si      -1.20642111      -3.54942810      -0.38086072       0.00000000
