10
Lattice="16.28999089631971 0.0 0.0 0.0 16.28999089631971 0.0 0.0 0.0 34.2284985734139" Properties=species:S:1:pos:R:3:initial_magmoms:R:1 pbc="T T T"
Si      -0.80731678       0.15097572       2.19555404       0.00000000
Si      -0.65986892      -2.16124317      -0.68162670       0.00000000
Si      -0.85310797       1.64854800      -1.47853505       0.00000000
Si       2.28125812       0.22410153       0.67505483       0.00000000
Si       1.07483701      -3.32532657       0.29419411       0.00000000
Si       3.37259038      -0.48711987      -1.36366415       0.00000000
Si      -2.65587340      -1.30893408       2.25524857       0.00000000
Si      -2.85876535      -2.38853754       0.12914420       0.00000000
Si       2.49894139       2.45363238       1.35668153       0.00000000
Si       0.73654909      -1.06575696       3.54056364       0.00000000
