10
Lattice="16.28999089631971 0.0 0.0 0.0 16.28999089631971 0.0 0.0 0.0 34.2284985734139" Properties=species:S:1:pos:R:3:initial_magmoms:R:1 pbc="T T T"
Si       1.87763427       0.74658440       1.14795603       0.00000000
Si       1.38800574      -1.29769398      -1.34850091       0.00000000
Si      -1.49391517      -1.08154197       1.42486473       0.00000000
Si      -1.31548266       1.45939896      -1.32724500       0.00000000
Si       0.55890990       0.95696161       3.06577987       0.00000000
Si       0.39139983      -1.36977723       3.34902086       0.00000000
Si      -3.28180688       0.67238671       1.53922221       0.00000000
Si      -2.66083206      -2.63419074       0.09156128       0.00000000
Si       0.03808602      -2.62692540      -2.70487438       0.00000000
Si      -2.68098183       0.08821020      -2.70442941       0.00000000
