10
Lattice="16.28999089631971 0.0 0.0 0.0 16.28999089631971 0.0 0.0 0.0 34.2284985734139" Properties=species:S:1:pos:R:3:initial_magmoms:R:1 pbc="T T T"
Si       0.94628610      -1.41793047       1.58224746       0.00000000
Si      -2.30724134      -0.05424570      -0.40348577       0.00000000
Si       0.65010132       2.03273040       1.01614201       0.00000000
Si       0.85113621      -0.13849758      -2.28584887       0.00000000
Si      -2.40576326      -2.22301485      -1.25296912       0.00000000
Si       1.01864628       2.18824126      -2.56908985       0.00000000
Si       2.27454012       2.64004604      -0.69559194       0.00000000
Si      -3.27623570       0.21069486       1.74917994       0.00000000
Si       3.19811796      -0.93744063       1.79069913       0.00000000
Si       0.72860283      -3.64746132       0.90062076       0.00000000
