10
Lattice="16.28999089631971 0.0 0.0 0.0 16.28999089631971 0.0 0.0 0.0 34.450931932916035" Properties=species:S:1:pos:R:3:initial_magmoms:R:1 pbc="T T T"
Si       1.35674523      -1.35519442      -1.35795314       0.00000000
Si      -1.35681039       1.35596331      -1.35843546       0.00000000
Si      -1.36784361      -1.35163831       1.36635917       0.00000000
Si       1.35264015       1.37301894       1.36939086       0.00000000
Si       2.71101438       2.71231758       0.00068902       0.00000000
Si      -2.71645874      -2.71123334       0.00037896       0.00000000
Si      -2.71351278       2.71464705       0.00720025       0.00000000
Si       2.71275741      -2.71573064       0.00327284       0.00000000
Si       2.71399545       0.00014661      -2.71514836       0.00000000
Si      -0.00024435       2.71477737      -2.71494166       0.00000000
