10
Lattice="16.28999089631971 0.0 0.0 0.0 16.28999089631971 0.0 0.0 0.0 34.450931932916035" Properties=species:S:1:pos:R:3:initial_magmoms:R:1 pbc="T T T"
Si      -1.35725022      -1.35534103       1.35719522       0.00000000
Si      -1.35728280       1.35687555      -1.35740193       0.00000000
Si       1.35780408      -1.35807124      -1.35767754       0.00000000
Si       1.35920502       1.35793440       1.35681626       0.00000000
Si       0.00040725       2.71283886      -2.71404593       0.00000000
Si      -0.00298107       2.71217097       2.71583738       0.00000000
Si       2.71241532      -0.00027693       2.71621634       0.00000000
Si      -2.71423980       2.71463076       0.00020671       0.00000000
Si       2.71451673       0.00055386      -2.71449380       0.00000000
Si      -2.71399545      -0.00014661       2.71514836       0.00000000
