10
Lattice="16.28999089631971 0.0 0.0 0.0 16.28999089631971 0.0 0.0 0.0 34.450931932916035" Properties=species:S:1:pos:R:3:initial_magmoms:R:1 pbc="T T T"
Si       1.32079320       0.16097289      -1.89735169       0.00000000
Si      -0.70840323      -2.19225837      -0.39928652       0.00000000
Si       1.52399466      -0.07361288       1.79623814       0.00000000
Si      -1.73149668       1.60170610      -0.33644799       0.00000000
Si      -2.96279262      -1.73778366       0.09274196       0.00000000
Si      -2.16148752       0.90843303      -2.51323134       0.00000000
Si      -0.28230570      -0.14067718      -3.62517024       0.00000000
Si      -0.72912411       3.66553507       0.14779458       0.00000000
Si       3.14564787      -1.45060725      -1.55142968       0.00000000
Si       0.45488196       1.43093803       3.50662452       0.00000000
