10
Lattice="16.28999089631971 0.0 0.0 0.0 16.28999089631971 0.0 0.0 0.0 34.450931932916035" Properties=species:S:1:pos:R:3:initial_magmoms:R:1 pbc="T T T"
Si      -1.32079320      -0.16097289       1.89735169       0.00000000
Si      -1.60309890      -0.30165008      -1.72781855       0.00000000
Si       0.51689799       2.25867040      -0.56578797       0.00000000
Si       1.82485467      -1.61158014       0.34592200       0.00000000
Si      -2.02919643      -2.35323126       1.49806516       0.00000000
Si       2.69154783       1.83879565      -1.48731646       0.00000000
Si       3.46530654      -0.36101898      -0.83660690       0.00000000
Si      -3.48228072       0.74746013      -0.61587965       0.00000000
Si       0.20320146      -0.23458577       3.69358983       0.00000000
Si      -3.05228988       1.44073321       1.56090370       0.00000000
