10
Lattice="16.28999089631971 0.0 0.0 0.0 16.28999089631971 0.0 0.0 0.0 34.450931932916035" Properties=species:S:1:pos:R:3:initial_magmoms:R:1 pbc="T T T"
Si       0.21879099      -2.34108477       0.32149628       0.00000000
Si      -2.30764140       0.56371545       0.01433160       0.00000000
Si       1.55562984       1.41320637       1.24629761       0.00000000
Si       0.54146331       0.74945403      -2.28561391       0.00000000
Si      -0.26241561       2.94236496      -1.64093326       0.00000000
Si      -1.90462680       2.89750230       0.09670382       0.00000000
Si       2.95054254       0.36789336      -1.89442335       0.00000000
Si       3.56518053       0.46493289       0.48779102       0.00000000
Si      -0.38884230      -3.23824023      -1.75696406       0.00000000
Si       1.35236322       0.82660347       3.51954362       0.00000000
