10
Lattice="16.28999089631971 0.0 0.0 0.0 16.28999089631971 0.0 0.0 0.0 34.450931932916035" Properties=species:S:1:pos:R:3:initial_magmoms:R:1 pbc="T T T"
Si      -2.07787095      -0.99025281       0.47215029       0.00000000
Si       1.55789415      -1.63918125       0.66180277       0.00000000
Si       0.20326662       0.58660290      -2.27324601       0.00000000
Si       0.43649055       2.04441129       1.21098539       0.00000000
Si      -3.07840275       1.14406299       0.33110809       0.00000000
Si       2.29592889      -2.22702219      -1.51305133       0.00000000
Si       2.81572650      -0.46341792       2.34604087       0.00000000
Si      -1.59943365      -2.40813441       2.37101781       0.00000000
Si       2.21281731      -0.36167058      -3.03175261       0.00000000
Si      -0.29471868       3.76090488      -0.42901770       0.00000000
