10
Lattice="16.28999089631971 0.0 0.0 0.0 16.28999089631971 0.0 0.0 0.0 34.450931932916035" Properties=species:S:1:pos:R:3:initial_magmoms:R:1 pbc="T T T"
Si       1.35436689       1.35698958      -1.35798759       0.00000000
Si       1.35451350      -1.36078515       1.35647175       0.00000000
Si      -1.36026387      -1.35839052      -1.35781534       0.00000000
Si      -1.36269108       1.35866745       1.36225951       0.00000000
Si       0.00948078      -2.69979057       2.71928248       0.00000000
Si       2.71062342      -2.71624347      -0.00155029       0.00000000
Si       2.71233387      -0.00097740      -2.71514836       0.00000000
Si      -0.00255753       2.71370223      -2.71470050       0.00000000
Si       2.71316466       2.71653669      -0.00148139       0.00000000
Si      -0.00283446      -2.71581993      -2.71535507       0.00000000
