10
Lattice="16.28999089631971 0.0 0.0 0.0 16.28999089631971 0.0 0.0 0.0 34.450931932916035" Properties=species:S:1:pos:R:3:initial_magmoms:R:1 pbc="T T T"
Si      -0.84041739      -1.76021595      -1.29911092       0.00000000
Si       1.76360427       0.93525777      -1.32384670       0.00000000
Si      -1.50902415       1.91829411       0.07169243       0.00000000
Si      -2.24694486      -0.40667985      -2.70381400       0.00000000
Si       0.48480669       2.33797338      -2.73106470       0.00000000
Si      -0.61204788       2.82817206       2.21809004       0.00000000
Si      -1.73288133      -0.29323629       3.24424607       0.00000000
Si      -0.92900241      -2.48614722       2.59956542       0.00000000
Si      -1.50964317      -3.49247826       0.29738061       0.00000000
Si      -3.52875609       1.00175355      -1.16068700       0.00000000
