10
Lattice="16.28999089631971 0.0 0.0 0.0 16.28999089631971 0.0 0.0 0.0 34.450931932916035" Properties=species:S:1:pos:R:3:initial_magmoms:R:1 pbc="T T T"
Si      -1.07686674       0.81510273       1.90145135       0.00000000
Si      -1.00123227       0.88461216      -1.97920715       0.00000000
Si       2.35556658       0.44481474      -0.06256293       0.00000000
Si      -0.57888144      -2.35919925       0.05722303       0.00000000
Si      -3.23639946      -0.04033404       1.17198691       0.00000000
Si      -0.34565751      -0.90139086       3.54145443       0.00000000
Si       1.43066925      -3.30747273      -0.70128356       0.00000000
Si       3.20937435      -1.72858077      -0.58446039       0.00000000
Si       2.53482174       2.06656569      -1.74142668       0.00000000
Si      -2.39692689      -0.83004066      -2.83000784       0.00000000
