10
Lattice="16.28999089631971 0.0 0.0 0.0 16.28999089631971 0.0 0.0 0.0 34.450931932916035" Properties=species:S:1:pos:R:3:initial_magmoms:R:1 pbc="T T T"
Si       0.88938513      -1.11259071       1.88977248       0.00000000
Si       1.73157813       1.02315651      -1.27978393       0.00000000
Si      -1.04453109      -1.68441858      -1.37907158       0.00000000
Si      -1.51700625       1.51404377       1.27726902       0.00000000
Si      -0.87446349      -2.66458788       2.15945452       0.00000000
Si       0.23776884       2.26165214      -2.76596352       0.00000000
Si      -2.50473411      -0.46398807      -2.78325790       0.00000000
Si       1.17159309       0.30208176       3.69410659       0.00000000
Si       3.43406232       1.81013407       0.28780325       0.00000000
Si       2.01344400       2.30361681       2.43110027       0.00000000
