10
Lattice="16.28999089631971 0.0 0.0 0.0 16.28999089631971 0.0 0.0 0.0 34.450931932916035" Properties=species:S:1:pos:R:3:initial_magmoms:R:1 pbc="T T T"
Si      -1.64520855      -1.18324044      -1.27892266       0.00000000
Si       2.00598318      -0.92339865      -0.99880198       0.00000000
Si       0.33422193      -0.94170861       2.24678768       0.00000000
Si      -0.02324583       2.30435149      -0.90668013       0.00000000
Si       1.37997477      -2.91548646       1.41193778       0.00000000
Si      -2.25564372       0.18570600      -3.10220480       0.00000000
Si      -1.54724049       2.37796437      -2.70291828       0.00000000
Si       3.21716097       2.20197699       0.66886522       0.00000000
Si       3.95939853       0.01197315       0.12364446       0.00000000
Si       2.24942094      -3.20862501      -0.74793015       0.00000000
