10
Lattice="16.28999089631971 0.0 0.0 0.0 16.28999089631971 0.0 0.0 0.0 34.450931932916035" Properties=species:S:1:pos:R:3:initial_magmoms:R:1 pbc="T T T"
Si       1.35698958      -1.35753227      -1.35753973       0.00000000
Si      -1.35625653      -1.35894950       1.35705742       0.00000000
Si      -1.35788553       1.35729464      -1.35757418       0.00000000
Si       1.35725022       1.35808960       1.35902112       0.00000000
Si      -0.00122175      -2.71497797       2.71366697       0.00000000
Si       2.71456560      -2.71476620      -0.00034451       0.00000000
Si       2.71498914       2.71458396      -0.00006890       0.00000000
Si      -2.71422351      -0.00092307      -2.71535507       0.00000000
Si       2.71494027      -0.00076041      -2.71494166       0.00000000
Si      -0.00115659      -2.71465217      -2.71542397       0.00000000
