10
Lattice="16.28999089631971 0.0 0.0 0.0 16.28999089631971 0.0 0.0 0.0 34.450931932916035" Properties=species:S:1:pos:R:3:initial_magmoms:R:1 pbc="T T T"
Si       1.35713619      -1.35685926      -1.35722967       0.00000000
Si      -1.35739683       1.35803214      -1.35726412       0.00000000
Si       1.35738054       1.35837423       1.35716077       0.00000000
Si      -1.35773892      -1.35649436       1.35909002       0.00000000
Si       2.71474479      -2.71463440      -0.00003445       0.00000000
Si      -2.71498914      -2.71458396       0.00006890       0.00000000
Si       0.00127062       2.71498914      -2.71466605       0.00000000
Si      -0.00004887      -2.71534437      -2.71487276       0.00000000
Si       2.71513575       2.71529865       0.00013780       0.00000000
Si      -2.71616202       0.00133578      -2.71432154       0.00000000
