10
Lattice="16.28999089631971 0.0 0.0 0.0 16.28999089631971 0.0 0.0 0.0 34.450931932916035" Properties=species:S:1:pos:R:3:initial_magmoms:R:1 pbc="T T T"
Si       1.35773892       1.35649436      -1.35909002       0.00000000
Si      -1.35725022      -1.35808960      -1.35902112       0.00000000
Si      -1.36052451       1.35699935       1.35729857       0.00000000
Si       1.35839052      -1.36093402       1.35802204       0.00000000
Si       2.70150102       0.02399191       2.71194443       0.00000000
Si      -2.71373481       2.71521068      -0.00210151       0.00000000
Si       2.71511946       2.71486859      -0.00192925       0.00000000
Si      -2.71350675      -2.71703909      -0.00196370       0.00000000
Si       0.00034209       2.71452650      -2.71635415       0.00000000
Si       2.71487511      -0.00036490      -2.71631970       0.00000000
