10
Lattice="16.28999089631971 0.0 0.0 0.0 16.28999089631971 0.0 0.0 0.0 34.450931932916035" Properties=species:S:1:pos:R:3:initial_magmoms:R:1 pbc="T T T"
Si       0.16441497       1.96404457       1.36629027       0.00000000
Si      -0.84185091      -2.00153505       1.26300632       0.00000000
Si       1.42061832      -0.49348274      -2.14329703       0.00000000
Si      -2.15643762       1.30829062      -0.74937709       0.00000000
Si      -0.28937556       3.48841390      -0.44238466       0.00000000
Si      -1.12405887      -3.41620752      -0.54132780       0.00000000
Si       3.67971552       0.37420573      -0.55703743       0.00000000
Si       2.00438676      -1.21157689       2.91827117       0.00000000
Si      -3.53045025      -0.78957304      -1.15383126       0.00000000
Si      -2.62435158      -1.19776623       2.54151557       0.00000000
