10
Lattice="16.28999089631971 0.0 0.0 0.0 16.28999089631971 0.0 0.0 0.0 34.450931932916035" Properties=species:S:1:pos:R:3:initial_magmoms:R:1 pbc="T T T"
Si       1.07023671      -2.05379433      -0.42353999       0.00000000
Si      -0.34267644       0.22172319       2.33425865       0.00000000
Si      -2.13635205      -0.64843974      -0.90402741       0.00000000
Si       1.03303035       1.89252333      -1.09223296       0.00000000
Si      -0.01220121       1.10214882      -3.19387878       0.00000000
Si      -2.39880024       1.24510986       2.13161815       0.00000000
Si      -3.63382659      -0.36652500       0.93551558       0.00000000
Si      -2.59014258       0.87592959      -2.71270235       0.00000000
Si       1.37894850      -2.23827858      -2.82735511       0.00000000
Si       2.88049554      -2.35970424       1.09757285       0.00000000
