10
Lattice="16.28999089631971 0.0 0.0 0.0 16.28999089631971 0.0 0.0 0.0 34.450931932916035" Properties=species:S:1:pos:R:3:initial_magmoms:R:1 pbc="T T T"
Si       0.47154663      -1.97030223      -1.18139202       0.00000000
Si      -1.64045187      -1.25056116       1.18252890       0.00000000
Si       1.98272106       0.80642016       1.09540244       0.00000000
Si      -0.77375871       2.19981463      -0.65070957       0.00000000
Si       0.01633887      -2.26924002       2.64304252       0.00000000
Si       1.25858169      -3.21344100       0.76832511       0.00000000
Si      -3.46530654       0.36101898       0.83660690       0.00000000
Si       1.12094748       0.90916608       3.30236483       0.00000000
Si      -0.56153259       1.92389461      -3.03967633       0.00000000
Si       1.90443132      -1.36907091      -2.90831485       0.00000000
