10
Lattice="16.28999089631971 0.0 0.0 0.0 16.28999089631971 0.0 0.0 0.0 34.450931932916035" Properties=species:S:1:pos:R:3:initial_magmoms:R:1 pbc="T T T"
Si      -1.35610992       1.35545832       1.35802204       0.00000000
Si      -1.35606105      -1.35697329      -1.35671291       0.00000000
Si       1.35922131       1.35738054      -1.35629950       0.00000000
Si       1.36068741      -1.35573525       1.36084702       0.00000000
Si      -2.70114264       0.01645290       2.72083277       0.00000000
Si      -2.71220355      -2.71384884       0.00068902       0.00000000
Si      -2.71062342       2.71624347       0.00155029       0.00000000
Si      -2.71345788       0.00042354      -2.71380478       0.00000000
Si       0.00187335      -2.71453302      -2.71356362       0.00000000
Si       0.00171045       2.71526607      -2.71359807       0.00000000
