10
Lattice="16.28999089631971 0.0 0.0 0.0 16.28999089631971 0.0 0.0 0.0 34.450931932916035" Properties=species:S:1:pos:R:3:initial_magmoms:R:1 pbc="T T T"
Si      -0.50046138       1.56582738       1.67266258       0.00000000
Si       1.22800536       1.45920933      -1.39863972       0.00000000
Si       1.03996989      -1.63856223       1.43701808       0.00000000
Si      -1.55903445      -1.17604026      -1.46592242       0.00000000
Si      -1.53797148      -1.86478146       1.91819451       0.00000000
Si      -2.04437871       0.27271089       2.86159936       0.00000000
Si       2.39722011       0.01195686      -2.84365041       0.00000000
Si       3.05092152       2.23492284       0.08337130       0.00000000
Si       1.36630746       1.45828080       3.27804246       0.00000000
Si       2.47182831      -3.00299634       0.13239501       0.00000000
