10
Lattice="16.28999089631971 0.0 0.0 0.0 16.28999089631971 0.0 0.0 0.0 34.450931932916035" Properties=species:S:1:pos:R:3:initial_magmoms:R:1 pbc="T T T"
Si      -1.47145941       1.21814991      -1.39540133       0.00000000
Si       1.23585714      -1.52116020      -1.37548868       0.00000000
Si      -1.78570980      -0.96806583       1.33170152       0.00000000
Si       1.55903445       1.17604026       1.46592242       0.00000000
Si       0.02106297      -0.68874120       3.38411693       0.00000000
Si      -0.12642669       2.55715533      -2.75821205       0.00000000
Si       2.59037064      -0.15403824      -2.75538708       0.00000000
Si      -2.80583847       2.55624309       0.03765489       0.00000000
Si       2.78703981       2.63524959       0.06728271       0.00000000
Si      -2.78221797      -2.73373893      -0.00582221       0.00000000
