10
Lattice="16.28999089631971 0.0 0.0 0.0 16.28999089631971 0.0 0.0 0.0 34.450931932916035" Properties=species:S:1:pos:R:3:initial_magmoms:R:1 pbc="T T T"
Si       1.65586221       1.08769959      -1.18814440       0.00000000
Si      -2.07661662       1.03801509      -0.30165253       0.00000000
Si       0.00394218      -2.30676174      -0.55459141       0.00000000
Si       0.06763608      -0.87446349       2.30859269       0.00000000
Si      -2.95858980       0.47348514       1.83437535       0.00000000
Si       3.45776427       0.88443297       0.23536890       0.00000000
Si      -2.13097635      -1.65141504       2.38521161       0.00000000
Si      -3.21862707      -0.33676317      -1.82476353       0.00000000
Si      -1.87473465      -3.20805486       0.57639886       0.00000000
Si       1.43627301       3.39874560      -0.75082403       0.00000000
