10
Lattice="16.28999089631971 0.0 0.0 0.0 16.28999089631971 0.0 0.0 0.0 34.450931932916035" Properties=species:S:1:pos:R:3:initial_magmoms:R:1 pbc="T T T"
Si      -1.65936456      -0.95412159       1.42608821       0.00000000
Si       1.03079862       1.65778443       1.41741690       0.00000000
Si      -1.01807613       2.04674076      -1.03845502       0.00000000
Si       1.85170059      -1.88294481      -0.10879610       0.00000000
Si      -0.06660981      -0.48669633      -2.89339759       0.00000000
Si       0.76100364      -2.61159651      -2.34256133       0.00000000
Si       2.38539357       0.29421369       2.72985000       0.00000000
Si      -0.34891551      -2.43833607       2.71941826       0.00000000
Si       2.48285664       2.83693608       0.04015342       0.00000000
Si       0.71394183       3.67090263      -1.16020468       0.00000000
