10
Lattice="16.28999089631971 0.0 0.0 0.0 16.28999089631971 0.0 0.0 0.0 34.450931932916035" Properties=species:S:1:pos:R:3:initial_magmoms:R:1 pbc="T T T"
Si      -1.34503272      -1.33900542       1.36281073       0.00000000
Si       1.35610992      -1.35545832      -1.35802204       0.00000000
Si      -1.35451350       1.36078515      -1.35647175       0.00000000
Si       1.36449927       1.35866745       1.38448038       0.00000000
Si       0.12642669      -2.55715533       2.75821205       0.00000000
Si       0.00004887      -2.71243161      -2.71473495       0.00000000
Si       2.71679733      -2.71119357       0.00282498       0.00000000
Si      -2.71477737       0.00239463      -2.71428709       0.00000000
Si       2.71533123       0.00192222      -2.71432154       0.00000000
Si      -0.00014661       2.71777473      -2.71445935       0.00000000
