10
Lattice="16.28999089631971 0.0 0.0 0.0 16.28999089631971 0.0 0.0 0.0 34.450931932916035" Properties=species:S:1:pos:R:3:initial_magmoms:R:1 pbc="T T T"
Si       1.35716877      -1.35896067      -1.36253512       0.00000000
Si      -1.35668007       1.35971001      -1.36422322       0.00000000
Si      -1.35083196      -1.35894438       1.37821030       0.00000000
Si       1.36181142       1.35672894       1.38789102       0.00000000
Si       2.71779102       2.71199178      -0.00427192       0.00000000
Si      -2.71616202       2.71479366      -0.00685574       0.00000000
Si      -2.71533123      -2.71761183      -0.00627007       0.00000000
Si       2.71818198      -2.71650411      -0.00320394       0.00000000
Si       2.71546155      -0.00109143      -2.72028156       0.00000000
Si      -0.00037467       2.71500543      -2.72086722       0.00000000
