10
Lattice="16.28999089631971 0.0 0.0 0.0 16.28999089631971 0.0 0.0 0.0 34.450931932916035" Properties=species:S:1:pos:R:3:initial_magmoms:R:1 pbc="T T T"
Si       1.73568321       0.10350666       1.56011132       0.00000000
Si      -0.38113713       2.09378628      -1.03411420       0.00000000
Si       0.69511059      -1.60933797      -1.59811072       0.00000000
Si      -1.95216102      -0.36645984       1.37249144       0.00000000
Si      -1.55543436       1.09248885      -2.90989959       0.00000000
Si       0.79765614       1.38637674       3.23983635       0.00000000
Si      -0.70162659      -1.08090666      -3.43179705       0.00000000
Si       3.04616484      -1.29334455      -1.64410274       0.00000000
Si      -1.52873505       1.25178876       3.16910855       0.00000000
Si       2.03914962      -2.15332623       2.31910023       0.00000000
