10
Lattice="16.28999089631971 0.0 0.0 0.0 16.28999089631971 0.0 0.0 0.0 34.450931932916035" Properties=species:S:1:pos:R:3:initial_magmoms:R:1 pbc="T T T"
Si       1.76891481      -0.83396655       1.20035810       0.00000000
Si       0.86944617      -0.29313855      -2.15986793       0.00000000
Si      -1.73201796      -1.62416187       0.12174966       0.00000000
Si      -1.04575284       1.97377785       0.83484990       0.00000000
Si       0.62600841       1.99208781      -2.41073976       0.00000000
Si       0.31685679      -2.01311820       2.57762159       0.00000000
Si      -1.37997477       2.91548646      -1.41193778       0.00000000
Si      -2.45794923       0.74699424       2.50548818       0.00000000
Si       3.19166712      -0.72490500      -2.01417486       0.00000000
Si      -0.71394183      -3.67090263       1.16020468       0.00000000
