10
Lattice="16.28999089631971 0.0 0.0 0.0 16.28999089631971 0.0 0.0 0.0 34.450931932916035" Properties=species:S:1:pos:R:3:initial_magmoms:R:1 pbc="T T T"
Si       1.35909099       1.34625447       1.37428289       0.00000000
Si      -1.35580041      -1.37015190       1.37455850       0.00000000
Si       1.38118023      -1.37960010      -1.37882008       0.00000000
Si      -1.41144705       1.35439947      -1.43848224       0.00000000
Si      -2.72249883       2.68176245       0.01956814       0.00000000
Si       2.72160288       2.69663031      -0.00322461       0.00000000
Si       0.00193851       2.70323810       2.73395858       0.00000000
Si      -2.72776050      -2.71244790       0.01179945       0.00000000
Si      -2.71415835      -0.01065366       2.73347627       0.00000000
Si       2.71728603      -0.01042560       2.73392413       0.00000000
