10
Lattice="16.28999089631971 0.0 0.0 0.0 16.28999089631971 0.0 0.0 0.0 34.450931932916035" Properties=species:S:1:pos:R:3:initial_magmoms:R:1 pbc="T T T"
Si       0.30001293      -1.04586687      -2.00366732       0.00000000
Si      -1.89467361       1.27299834      -0.05329562       0.00000000
Si       0.15239295      -0.50380083       2.33112361       0.00000000
Si       2.08686303       0.32234652       1.35130411       0.00000000
Si      -1.61246565       2.68767081       1.75103850       0.00000000
Si       1.48527333       0.56633814      -3.24793232       0.00000000
Si      -3.65852223      -0.27899883       0.21638642       0.00000000
Si      -0.33534594       1.54842966       3.35969121       0.00000000
Si       2.42939286       2.42334927      -1.91988261       0.00000000
Si       3.83148945      -1.01833677       0.31932587       0.00000000
