10
Lattice="16.28999089631971 0.0 0.0 0.0 16.28999089631971 0.0 0.0 0.0 34.450931932916035" Properties=species:S:1:pos:R:3:initial_magmoms:R:1 pbc="T T T"
Si      -1.22748408       1.13919228      -1.68306677       0.00000000
Si       0.89803512      -1.64955798      -1.48683415       0.00000000
Si       1.93251528       1.11337263       0.91153772       0.00000000
Si      -1.02491793      -0.24896007       2.18584395       0.00000000
Si       2.60596017      -0.08145000      -2.27410729       0.00000000
Si      -0.24956280      -2.49155550       2.71638860       0.00000000
Si      -0.17948322       1.83311370       3.27545863       0.00000000
Si      -3.49801686       0.19904751      -1.42702730       0.00000000
Si       3.36539997       1.71460395      -0.81538511       0.00000000
Si       2.71955034      -0.12976614       2.86125485       0.00000000
