10
Lattice="16.28999089631971 0.0 0.0 0.0 16.28999089631971 0.0 0.0 0.0 34.450931932916035" Properties=species:S:1:pos:R:3:initial_magmoms:R:1 pbc="T T T"
Si       1.35674523       1.35635427       1.35805650       0.00000000
Si      -1.35827649      -1.35822762       1.35826320       0.00000000
Si      -1.36124127       1.35889551      -1.35512816       0.00000000
Si       1.35817875      -1.35968883      -1.35843546       0.00000000
Si       2.71800279      -0.01110978      -2.70944329       0.00000000
Si      -2.71414206       2.71362078       0.00082682       0.00000000
Si       2.71517492       2.71332756       0.00068902       0.00000000
Si      -0.00027693       2.71393029       2.71563068       0.00000000
Si       2.71426577      -0.00140094       2.71594074       0.00000000
Si      -2.71541268      -0.00136836       2.71549287       0.00000000
