10
Lattice="16.28999089631971 0.0 0.0 0.0 16.28999089631971 0.0 0.0 0.0 34.450931932916035" Properties=species:S:1:pos:R:3:initial_magmoms:R:1 pbc="T T T"
Si      -1.37207412      -1.33142731       1.35392238       0.00000000
Si       1.35635427      -1.35738217      -1.36067477       0.00000000
Si      -1.35845568       1.35944937      -1.35995130       0.00000000
Si       1.36068741       1.35796698       1.39591809       0.00000000
Si       2.71302173      -2.70952289      -0.00141249       0.00000000
Si       2.71384223       0.00104256      -2.71666421       0.00000000
Si      -0.00109143      -2.71355926      -2.71714652       0.00000000
Si      -2.71518462      -2.71635325       0.00000000       0.00000000
Si      -2.71441899       2.71790505       0.00003445       0.00000000
Si       2.71596770       2.71635750       0.00540880       0.00000000
