10
Lattice="16.28999089631971 0.0 0.0 0.0 16.28999089631971 0.0 0.0 0.0 34.450931932916035" Properties=species:S:1:pos:R:3:initial_magmoms:R:1 pbc="T T T"
Si      -1.35656604      -1.35881406       1.35650620       0.00000000
Si       1.35695700      -1.35775521      -1.35760863       0.00000000
Si      -1.35783340       1.35715248      -1.35784979       0.00000000
Si       1.35842310       1.35845568       1.35719522       0.00000000
Si       2.71125873      -0.00245979       2.71563068       0.00000000
Si       2.71423980      -2.71463076      -0.00020671       0.00000000
Si       2.71464705      -0.00179190      -2.71425264       0.00000000
Si      -2.71448475      -0.00071676      -2.71518282       0.00000000
Si       0.00024435      -2.71477737       2.71494166       0.00000000
Si       2.71476108       2.71500543      -0.00034451       0.00000000
