10
Lattice="16.28999089631971 0.0 0.0 0.0 16.28999089631971 0.0 0.0 0.0 34.450931932916035" Properties=species:S:1:pos:R:3:initial_magmoms:R:1 pbc="T T T"
Si       1.11272103       1.27110870       1.61984036       0.00000000
Si      -0.70954353       1.58772114      -1.73588008       0.00000000
Si      -1.49760486      -1.22138836       1.59453269       0.00000000
Si       2.02061160      -0.83632860      -1.59676714       0.00000000
Si       1.10864853       3.10787136      -1.29618259       0.00000000
Si       2.62135294       2.42421264       0.30634916       0.00000000
Si       2.67747883      -2.59871959       0.07813476       0.00000000
Si       2.51576244       0.04171869       2.99668296       0.00000000
Si      -2.73688290      -2.31099551      -1.64703107       0.00000000
Si       3.76547490       0.71373006      -0.93475766       0.00000000
