10
Lattice="16.28999089631971 0.0 0.0 0.0 16.28999089631971 0.0 0.0 0.0 34.450931932916035" Properties=species:S:1:pos:R:3:initial_magmoms:R:1 pbc="T T T"
Si      -1.35371529       1.35464382       1.36084702       0.00000000
Si       1.35782067       1.35581670      -1.35650620       0.00000000
Si      -1.35671265      -1.35918873      -1.35640285       0.00000000
Si       1.35995552      -1.35920502       1.36598021       0.00000000
Si      -2.71472850       2.71218726       0.00151584       0.00000000
Si      -0.00013032       2.71301805      -2.71397703       0.00000000
Si      -2.71448415      -0.00154755      -2.71383923       0.00000000
Si       2.71562512       2.71331127       0.00031006       0.00000000
Si       2.71539054      -0.00192222      -2.71401148       0.00000000
Si      -2.71446786      -2.71611315       0.00062012       0.00000000
