10
Lattice="16.28999089631971 0.0 0.0 0.0 16.28999089631971 0.0 0.0 0.0 34.450931932916035" Properties=species:S:1:pos:R:3:initial_magmoms:R:1 pbc="T T T"
Si       1.35371529      -1.35464382      -1.36084702       0.00000000
Si      -1.36101321       1.35754344      -1.35933118       0.00000000
Si       1.35400851       1.35765747       1.37111341       0.00000000
Si      -1.35083196      -1.37026593       1.37741793       0.00000000
Si      -2.52004671       0.07698654       2.82242863       0.00000000
Si       2.70965161       2.71332756       0.00289388       0.00000000
Si       2.71367081      -2.71384884       0.00513319       0.00000000
Si       2.71153596       0.00117288      -2.71735323       0.00000000
Si      -2.71671588      -2.71230129      -0.00024116       0.00000000
Si      -0.00299736      -2.71383255      -2.71724987       0.00000000
