10
Lattice="16.28999089631971 0.0 0.0 0.0 16.28999089631971 0.0 0.0 0.0 34.450931932916035" Properties=species:S:1:pos:R:3:initial_magmoms:R:1 pbc="T T T"
Si       2.16252749      -0.89575452       0.40586666       0.00000000
Si      -1.16970345       0.08966016      -2.20231151       0.00000000
Si      -1.47160602      -0.71399070       1.94293029       0.00000000
Si       1.22996735       2.28343446      -0.14727782       0.00000000
Si      -1.09050147       1.54956996       2.60545654       0.00000000
Si      -2.65395051       2.54806551       0.18155651       0.00000000
Si       1.11652542       2.74020606       2.38600398       0.00000000
Si       0.56956356       1.09849986      -3.65359228       0.00000000
Si       3.12684011       0.16720056       2.48959799       0.00000000
Si      -2.80966662       1.93359042      -2.19738502       0.00000000
