10
Lattice="16.28999089631971 0.0 0.0 0.0 16.28999089631971 0.0 0.0 0.0 34.450931932916035" Properties=species:S:1:pos:R:3:initial_magmoms:R:1 pbc="T T T"
Si       0.80495406       2.13573303      -0.51607525       0.00000000
Si      -1.82897604       1.03092894       1.07697119       0.00000000
Si       1.86856304      -1.11304683       0.92252757       0.00000000
Si      -0.82676637      -1.24445826      -1.84881030       0.00000000
Si       1.87424988       2.53439820       1.56889632       0.00000000
Si      -0.82196082       1.89091062      -2.88623179       0.00000000
Si      -3.55384269      -0.40856949       0.37634219       0.00000000
Si      -3.08009691      -0.63193797      -1.95485032       0.00000000
Si       2.43922617       1.81025883      -2.12831086       0.00000000
Si       3.28196978       0.65537928       1.68144757       0.00000000
