10
Lattice="16.28999089631971 0.0 0.0 0.0 16.28999089631971 0.0 0.0 0.0 34.450931932916035" Properties=species:S:1:pos:R:3:initial_magmoms:R:1 pbc="T T T"
Si       1.63427211      -0.32547420      -1.61223561       0.00000000
Si      -0.80495406      -2.13573303       0.51607525       0.00000000
Si       1.06929582       0.39866517       2.08497157       0.00000000
Si      -0.99518868       2.20002966      -0.00451307       0.00000000
Si      -1.62691488      -0.24482241      -2.37015654       0.00000000
Si      -1.14124482       2.00867103      -2.28998918       0.00000000
Si      -2.93739651       1.15202880       0.83405753       0.00000000
Si      -2.63393010      -1.10480409       1.59304643       0.00000000
Si       1.12069566       1.70709426      -2.62292317       0.00000000
Si       2.47701572      -1.48035375       2.19752282       0.00000000
