10
Lattice="16.28999089631971 0.0 0.0 0.0 16.28999089631971 0.0 0.0 0.0 34.450931932916035" Properties=species:S:1:pos:R:3:initial_magmoms:R:1 pbc="T T T"
Si      -0.80115849       2.16464682      -0.36431881       0.00000000
Si      -1.90576710      -1.01375928      -1.02364111       0.00000000
Si      -1.20156669      -0.91046439       1.89383769       0.00000000
Si       2.19857985      -0.65621007      -0.82144848       0.00000000
Si       2.28087693       1.38136986      -1.89104716       0.00000000
Si       0.06061509       2.06190090      -2.57128119       0.00000000
Si      -1.94380425       1.27953945       2.43905844       0.00000000
Si       0.37308987      -2.67369399       2.22181074       0.00000000
Si      -0.66352428      -1.95796026      -2.89835852       0.00000000
Si      -3.15498204      -1.84583619       0.77139125       0.00000000
