10
Lattice="16.28999089631971 0.0 0.0 0.0 16.28999089631971 0.0 0.0 0.0 34.450931932916035" Properties=species:S:1:pos:R:3:initial_magmoms:R:1 pbc="T T T"
Si      -0.92647746       0.24076620      -2.10126687       0.00000000
Si      -0.98095122      -1.10848563       1.81566848       0.00000000
Si       1.89441297      -1.12313034      -0.88855893       0.00000000
Si      -0.33795234       2.26810557       0.76336418       0.00000000
Si       0.05626566       0.27372087       3.45818648       0.00000000
Si      -2.62024210       2.29938237       0.07827256       0.00000000
Si       3.45331710       0.55545642      -0.53877843       0.00000000
Si       0.60616719       1.93075596      -2.92653940       0.00000000
Si      -2.33419736       2.11978512      -2.21381812       0.00000000
Si      -3.28516262      -1.32747210       1.72392560       0.00000000
