10
Lattice="16.28999089631971 0.0 0.0 0.0 16.28999089631971 0.0 0.0 0.0 34.450931932916035" Properties=species:S:1:pos:R:3:initial_magmoms:R:1 pbc="T T T"
Si      -2.30421140      -0.21898647      -0.09174288       0.00000000
Si       0.98095122       1.10848563      -1.81566848       0.00000000
Si       0.98259651      -2.05053633       0.65329339       0.00000000
Si       1.03721688       1.38220650       1.64251800       0.00000000
Si       3.22949250       0.32047317       1.50657455       0.00000000
Si       0.64299888       3.37659120      -1.05230430       0.00000000
Si      -0.43316576      -2.53605978       2.52315321       0.00000000
Si      -2.68639109      -2.21666175      -1.28350464       0.00000000
Si      -3.13690733       1.86509097      -0.77824699       0.00000000
Si      -3.08999213      -0.14191848       2.16172829       0.00000000
