10
Lattice="16.28999089631971 0.0 0.0 0.0 16.28999089631971 0.0 0.0 0.0 34.450931932916035" Properties=species:S:1:pos:R:3:initial_magmoms:R:1 pbc="T T T"
Si       1.36254447       1.34796492       1.37382125       0.00000000
Si      -1.35479206      -1.36603053       1.37354564       0.00000000
Si       1.33195185      -1.44218628      -1.33247322       0.00000000
Si      -1.18177271       1.56142908      -1.42508771       0.00000000
Si      -2.69531033       2.71930599       0.01504129       0.00000000
Si       2.71394658      -2.70285309       0.04309814       0.00000000
Si       2.80360674      -0.15765462      -2.61106929       0.00000000
Si       2.69819415       2.73691548       0.00309370       0.00000000
Si      -2.69826721      -2.73823497       0.02689930       0.00000000
Si       0.00187335       2.70769122       2.73342804       0.00000000
