10
Lattice="16.28999089631971 0.0 0.0 0.0 16.28999089631971 0.0 0.0 0.0 34.450931932916035" Properties=species:S:1:pos:R:3:initial_magmoms:R:1 pbc="T T T"
Si      -0.17249481       0.20725767       2.31913468       0.00000000
Si       0.68830137       2.02287591      -1.03370079       0.00000000
Si      -2.28228976       0.03127680      -0.68509162       0.00000000
Si       0.33795234      -2.26810557      -0.76336418       0.00000000
Si       0.39421800      -1.99438470       2.69482230       0.00000000
Si      -0.33607899       1.57288095      -3.10013774       0.00000000
Si      -0.58852512      -2.02733937      -2.86463104       0.00000000
Si      -1.99624502      -0.14832045      -2.97718230       0.00000000
Si      -0.64299888      -3.37659120       1.05230430       0.00000000
Si       1.78333146       1.40330205       2.96639915       0.00000000
