10
Lattice="16.28999089631971 0.0 0.0 0.0 16.28999089631971 0.0 0.0 0.0 34.450931932916035" Properties=species:S:1:pos:R:3:initial_magmoms:R:1 pbc="T T T"
Si      -1.35548911      -1.35742145      -1.35647175       0.00000000
Si       1.35554629       1.35686089      -1.35795314       0.00000000
Si       1.35790834      -1.35709366       1.35702297       0.00000000
Si      -1.35742040       1.35731701       1.35740193       0.00000000
Si       0.00296152       2.71305226      -2.71287460       0.00000000
Si      -0.00016453      -2.71538566      -2.71180662       0.00000000
Si       0.00140746       2.71394821       2.71383923       0.00000000
Si      -2.71490836      -0.00110772       2.71339137       0.00000000
Si       0.00053431      -2.71439197       2.71421819       0.00000000
Si      -2.71414273      -2.71465261       0.00003445       0.00000000
