10
Lattice="16.28999089631971 0.0 0.0 0.0 16.28999089631971 0.0 0.0 0.0 34.450931932916035" Properties=species:S:1:pos:R:3:initial_magmoms:R:1 pbc="T T T"
Si       1.32187339      -1.32823773      -1.46058253       0.00000000
Si      -1.05915513      -1.70740377       1.34837578       0.00000000
Si       0.89119185       1.80946062       1.39326537       0.00000000
Si      -1.42366017       1.36842516      -1.46285629       0.00000000
Si      -0.92082045       3.41749606       1.07135568       0.00000000
Si       2.60299067       2.74286133      -0.08940022       0.00000000
Si       2.71666229      -2.64386700       0.09115722       0.00000000
Si       0.78500223      -3.55149693       1.24054430       0.00000000
Si      -2.72192430      -2.73505842       0.04475179       0.00000000
Si       2.65274033       0.02554272      -2.84227237       0.00000000
