10
Lattice="16.28999089631971 0.0 0.0 0.0 16.28999089631971 0.0 0.0 0.0 34.450931932916035" Properties=species:S:1:pos:R:3:initial_magmoms:R:1 pbc="T T T"
Si      -1.25785027      -1.90490373      -0.23151039       0.00000000
Si      -0.25565526       0.82820724       2.18611956       0.00000000
Si       2.14280289      -0.88211979      -0.45513152       0.00000000
Si      -0.54716481       1.25455710      -1.96987094       0.00000000
Si      -0.69382368      -2.44188729      -2.48312121       0.00000000
Si       1.04306499       2.83674779       1.96456549       0.00000000
Si       3.19200921       0.98387106      -1.45224540       0.00000000
Si      -3.42717884      -1.24843302       0.38974361       0.00000000
Si       1.67974335      -2.29570083      -2.33677357       0.00000000
Si       1.53775971       1.86681349      -2.90810814       0.00000000
