10
Lattice="16.28999089631971 0.0 0.0 0.0 16.28999089631971 0.0 0.0 0.0 34.48637585096406" Properties=species:S:1:pos:R:3:initial_magmoms:R:1 pbc="T T T"
Si      -1.36836000      -1.32523803       1.36300579       0.00000000
Si      -1.35443205       1.35908585      -1.35803975       0.00000000
Si       1.35997065      -1.35742707      -1.35993651       0.00000000
Si       1.35822762       1.36407874       1.39352625       0.00000000
Si       0.20483046      -2.49790626       2.61375837       0.00000000
Si      -2.71290402       0.00107903      -2.71614848       0.00000000
Si       0.00177561      -2.71332522      -2.71683821       0.00000000
Si      -2.71435383      -2.71671354       0.00106908       0.00000000
Si       2.71691136      -2.71438407      -0.00320723       0.00000000
Si       0.00164529       2.71646476      -2.71670026       0.00000000
