10
Lattice="16.28999089631971 0.0 0.0 0.0 16.28999089631971 0.0 0.0 0.0 34.48637585096406" Properties=species:S:1:pos:R:3:initial_magmoms:R:1 pbc="T T T"
Si       1.60402743       0.88265736      -1.62337808       0.00000000
Si       1.39971825       0.20271276       2.14170860       0.00000000
Si      -1.04111019      -1.83194489      -1.67327989       0.00000000
Si      -1.77559371       1.74373047       1.32976091       0.00000000
Si      -2.21491057      -0.68240113       1.81608805       0.00000000
Si       2.04120216      -1.99530413       1.65586426       0.00000000
Si       2.87073783       2.38835835      -0.19084771       0.00000000
Si       0.30024099       2.21882832      -3.17395538       0.00000000
Si      -2.41489802      -0.50181182      -3.17599007       0.00000000
Si      -3.06989937       2.54845647      -0.50188051       0.00000000
