10
Lattice="16.28999089631971 0.0 0.0 0.0 16.28999089631971 0.0 0.0 0.0 34.48637585096406" Properties=species:S:1:pos:R:3:initial_magmoms:R:1 pbc="T T T"
Si      -0.08117307      -0.68727510       2.25582408       0.00000000
Si       1.37052657      -1.29380067      -1.42708152       0.00000000
Si       1.01602359       2.12998266       0.25392333       0.00000000
Si      -2.28180546       0.11793960      -0.74697532       0.00000000
Si       2.00533158      -1.72662760       2.25944515       0.00000000
Si      -1.88871147      -1.28604663      -2.69138725       0.00000000
Si      -0.79009758       3.23172423       1.18367654       0.00000000
Si      -2.77858530       2.23774101       0.34413974       0.00000000
Si       0.40707081      -0.92406654      -3.49212686       0.00000000
Si       3.51453492      -0.20605221       1.18450421       0.00000000
