10
Lattice="16.28999089631971 0.0 0.0 0.0 16.28999089631971 0.0 0.0 0.0 34.48637585096406" Properties=species:S:1:pos:R:3:initial_magmoms:R:1 pbc="T T T"
Si      -1.35127179       1.31048163       1.51479421       0.00000000
Si       1.97600958       0.66494151      -1.26706261       0.00000000
Si       1.33266861      -1.42617321       1.51234568       0.00000000
Si      -2.01512187      -0.96648570      -1.16852215       0.00000000
Si       2.77298154       2.62154970       0.08211900       0.00000000
Si      -2.71820967       2.72383461       0.12024371       0.00000000
Si       2.73816981      -2.76242236       0.11153245       0.00000000
Si      -2.74143758      -2.79610357       0.22762745       0.00000000
Si      -0.00811242       2.64810240       2.89739173       0.00000000
Si       2.70669753      -0.06652836       2.89090829       0.00000000
