10
Lattice="16.28999089631971 0.0 0.0 0.0 16.28999089631971 0.0 0.0 0.0 34.48637585096406" Properties=species:S:1:pos:R:3:initial_magmoms:R:1 pbc="T T T"
Si      -1.27985643      -1.11757545       1.65107065       0.00000000
Si       1.98848772       0.99398322       0.83953680       0.00000000
Si      -1.27679391       1.91633931      -0.60389127       0.00000000
Si       0.49677984      -2.11980141      -1.09111506       0.00000000
Si      -1.12510143       1.17615429      -2.86588841       0.00000000
Si      -2.25494325      -0.87363270      -2.32200347       0.00000000
Si      -0.81643851      -3.22033752       0.62182419       0.00000000
Si       2.77858530      -2.23774101      -0.34413974       0.00000000
Si      -0.15016122       3.52570986       0.74390603       0.00000000
Si       1.53614700       0.69599025       3.21437343       0.00000000
