10
Lattice="16.28999089631971 0.0 0.0 0.0 16.28999089631971 0.0 0.0 0.0 34.48637585096406" Properties=species:S:1:pos:R:3:initial_magmoms:R:1 pbc="T T T"
Si       1.12607883       1.66203612      -1.22643967       0.00000000
Si      -1.29261150       1.11840624       1.67793555       0.00000000
Si      -1.83417255      -1.25099055      -1.09014944       0.00000000
Si       1.55297457      -2.11142835       0.03545201       0.00000000
Si       2.29276863       0.09948303      -2.49774614       0.00000000
Si      -1.65134988      -0.91592154       2.89834011       0.00000000
Si      -0.46045314      -2.62405836      -2.48960735       0.00000000
Si       2.42484795       2.80549638       0.47418793       0.00000000
Si      -0.44711163       2.83470435      -2.47719225       0.00000000
Si      -1.74863376      -3.00622176       1.52550569       0.00000000
