10
Lattice="16.28999089631971 0.0 0.0 0.0 16.28999089631971 0.0 0.0 0.0 34.48637585096406" Properties=species:S:1:pos:R:3:initial_magmoms:R:1 pbc="T T T"
Si      -0.25624170      -0.36351135       2.27411260       0.00000000
Si      -1.43086473      -1.68057414      -0.79111790       0.00000000
Si      -0.60525495       1.96937955      -1.20481670       0.00000000
Si       2.12770206      -0.61229223      -0.90347458       0.00000000
Si       1.01216286      -1.00458801      -2.94479328       0.00000000
Si      -0.27165204       1.01569779      -3.29696835       0.00000000
Si      -1.40517540      -1.04135454      -3.04087238       0.00000000
Si       1.40224320      -2.22852087       2.33901323       0.00000000
Si       2.94322833      -2.30019687       0.56292143       0.00000000
Si       0.57321252       1.49460750       3.43819500       0.00000000
