10
Lattice="16.28999089631971 0.0 0.0 0.0 16.28999089631971 0.0 0.0 0.0 34.48637585096406" Properties=species:S:1:pos:R:3:initial_magmoms:R:1 pbc="T T T"
Si       1.35694071      -1.35695700       1.35672927       0.00000000
Si      -1.35819504      -1.35589815      -1.35690170       0.00000000
Si       1.35669636       1.35860597      -1.35690170       0.00000000
Si      -1.35997065       1.35742707       1.35993651       0.00000000
Si       0.01154961      -2.70303228       2.70238841       0.00000000
Si       2.71425609      -2.71223613       0.00072421       0.00000000
Si       2.71393029       0.00231318      -2.71369995       0.00000000
Si      -0.00089595      -2.71399545      -2.71366546       0.00000000
Si       2.71384884       2.71526185       0.00065524       0.00000000
Si      -2.71601541      -2.71404432       0.00044832       0.00000000
