10
Lattice="16.28999089631971 0.0 0.0 0.0 16.28999089631971 0.0 0.0 0.0 34.48637585096406" Properties=species:S:1:pos:R:3:initial_magmoms:R:1 pbc="T T T"
Si       0.12199581      -1.92900057      -1.29292944       0.00000000
Si       1.01063160       0.18115457       2.25444462       0.00000000
Si      -2.19379059       0.83472078      -1.12715334       0.00000000
Si       2.75081085       0.65310683      -0.99286332       0.00000000
Si       1.51759269      -0.53623815      -2.61030973       0.00000000
Si       1.35679410       2.44185797       1.52533326       0.00000000
Si      -2.86870158       1.80159581       0.93247764       0.00000000
Si      -0.86547141       3.21206546       1.13732682       0.00000000
Si       0.09101223      -3.51549996       0.48960335       0.00000000
Si      -1.20912525       2.40471677      -2.53950916       0.00000000
