10
Lattice="16.28999089631971 0.0 0.0 0.0 16.28999089631971 0.0 0.0 0.0 34.48637585096406" Properties=species:S:1:pos:R:3:initial_magmoms:R:1 pbc="T T T"
Si      -0.39752487      -2.29163389       0.33003480       0.00000000
Si       1.82822670       0.11995141      -1.51715998       0.00000000
Si       1.12775670       1.03182815       1.83995264       0.00000000
Si      -2.20281525       0.50168965      -0.78642775       0.00000000
Si       1.75611087      -2.64646267       1.24147574       0.00000000
Si       1.84979466      -0.91604113       2.91003099       0.00000000
Si      -2.39458113      -2.46916231       1.61437713       0.00000000
Si       0.81759510      -0.06120316      -3.77160460       0.00000000
Si      -0.37129797       2.34120043       3.07773833       0.00000000
Si      -2.05110648       1.74039265      -2.83912696       0.00000000
