10
Lattice="16.28999089631971 0.0 0.0 0.0 16.28999089631971 0.0 0.0 0.0 34.48637585096406" Properties=species:S:1:pos:R:3:initial_magmoms:R:1 pbc="T T T"
Si       1.86439050      -0.35267850       1.28699778       0.00000000
Si      -0.54377649       2.24033112       0.38786849       0.00000000
Si      -0.01190799      -0.23250717      -2.35738651       0.00000000
Si      -1.50920334      -1.52057539       1.07494094       0.00000000
Si      -2.49851133       2.33603487      -0.93058089       0.00000000
Si      -2.14400835      -1.08774846      -2.61158573       0.00000000
Si      -0.83065968       2.29074867       2.67314395       0.00000000
Si       1.43728299       1.14864048       3.16226449       0.00000000
Si       1.98913932      -2.76388195       1.38255958       0.00000000
Si      -3.51453492       0.20605221      -1.18450421       0.00000000
