10
Lattice="16.28999089631971 0.0 0.0 0.0 16.28999089631971 0.0 0.0 0.0 34.48637585096406" Properties=species:S:1:pos:R:3:initial_magmoms:R:1 pbc="T T T"
Si      -1.34066700      -1.35127179      -1.37453115       0.00000000
Si      -1.35461124       1.36052451       1.35500495       0.00000000
Si       1.35969372      -1.35452979       1.35655684       0.00000000
Si       1.38316761       1.32581052      -1.36667170       0.00000000
Si       0.11337840       2.79132408      -2.62703563       0.00000000
Si       0.00143352      -2.71342530       2.71283779       0.00000000
Si       2.71428867      -2.71202436      -0.00369004       0.00000000
Si      -2.71379997       0.00144981       2.71294125       0.00000000
Si       2.71585251       0.00128691       2.71287227       0.00000000
Si      -2.71507059      -2.71425609      -0.00724214       0.00000000
