10
Lattice="16.28999089631971 0.0 0.0 0.0 16.28999089631971 0.0 0.0 0.0 34.48637585096406" Properties=species:S:1:pos:R:3:initial_magmoms:R:1 pbc="T T T"
Si      -1.07514000      -1.61536527       1.36938578       0.00000000
Si       1.35967743       1.31347899       1.47149999       0.00000000
Si       1.37801997      -1.30885263      -1.48312191       0.00000000
Si      -1.34267067       1.38929265      -1.47139653       0.00000000
Si       2.68618842       2.59498071      -0.08794031       0.00000000
Si       2.65013865      -2.73619872      -0.07252489       0.00000000
Si       0.65982645      -3.46494816       1.46705125       0.00000000
Si      -2.70966231      -2.71179630       0.04545307       0.00000000
Si       0.02407662      -2.68167609      -2.85416303       0.00000000
Si      -2.68933239       0.03455109      -2.85402509       0.00000000
