10
Lattice="16.28999089631971 0.0 0.0 0.0 16.28999089631971 0.0 0.0 0.0 34.48637585096406" Properties=species:S:1:pos:R:3:initial_magmoms:R:1 pbc="T T T"
Si      -0.60424497       2.06887887      -1.04400664       0.00000000
Si       1.98035901       0.31110642       1.32579497       0.00000000
Si       0.58968171      -2.26274616      -0.57781955       0.00000000
Si      -2.21853510      -0.54812592       1.06931965       0.00000000
Si      -2.07780579       2.26911555       0.72866304       0.00000000
Si      -1.06336233      -2.18657412       2.37393998       0.00000000
Si       0.82417626      -0.98916138       3.38884010       0.00000000
Si       1.21868748       3.49071894      -0.45549631       0.00000000
Si      -3.33663183      -1.41371136      -0.87695454       0.00000000
Si       0.87656490      -2.31316371      -2.86309501       0.00000000
