10
Lattice="16.28999089631971 0.0 0.0 0.0 16.28999089631971 0.0 0.0 0.0 34.48637585096406" Properties=species:S:1:pos:R:3:initial_magmoms:R:1 pbc="T T T"
Si      -1.34666172      -1.35474156      -1.38262855       0.00000000
Si       1.36897902       1.36024758      -1.38307688       0.00000000
Si       1.34267067      -1.38929265       1.47139653       0.00000000
Si      -1.45990980       1.36063854       1.39728527       0.00000000
Si      -2.69744481      -2.71933857      -0.00517296       0.00000000
Si       2.72069064      -2.69814528      -0.01172537       0.00000000
Si      -2.69299764       2.72837952      -0.04186648       0.00000000
Si       2.72635956       2.70935280      -0.00972516       0.00000000
Si      -2.70521514       0.00247608      -2.74342722       0.00000000
Si       0.00856854      -2.71329498      -2.74349619       0.00000000
