10
Lattice="16.28999089631971 0.0 0.0 0.0 16.28999089631971 0.0 0.0 0.0 34.48637585096406" Properties=species:S:1:pos:R:3:initial_magmoms:R:1 pbc="T T T"
Si       0.49524858       1.16905185       1.93168645       0.00000000
Si       1.92712329      -0.15146442      -1.35910883       0.00000000
Si      -0.69853149      -2.27848230       0.05090192       0.00000000
Si      -1.63848078       1.56152682      -0.81394790       0.00000000
Si      -0.98429067      -0.89521695      -3.32914415       0.00000000
Si       1.12562271       3.24881244       1.05804260       0.00000000
Si      -1.63422909       1.39222485       2.93220575       0.00000000
Si      -2.03745546      -2.45689038      -1.86374825       0.00000000
Si      -1.36603053       1.45481103      -3.12898512       0.00000000
Si      -3.69300816       0.34728651      -0.51453702       0.00000000
