10
Lattice="16.28999089631971 0.0 0.0 0.0 16.28999089631971 0.0 0.0 0.0 34.48637585096406" Properties=species:S:1:pos:R:3:initial_magmoms:R:1 pbc="T T T"
Si      -1.47356082       0.20023668       1.77266968       0.00000000
Si      -0.68874120       0.42321420      -2.20999166       0.00000000
Si       1.82293245       1.42184007       0.58851033       0.00000000
Si       0.60424497      -2.06887887       1.04400664       0.00000000
Si       1.44073647       0.20004120      -3.21051095       0.00000000
Si       1.48994856       1.75019760       2.91599714       0.00000000
Si      -1.61429013      -2.61700479       2.11332629       0.00000000
Si       3.78434619       0.21895389      -0.09228559       0.00000000
Si      -2.75737572       2.22052248       1.42049462       0.00000000
Si      -0.35802162       0.59253246       3.81398838       0.00000000
