10
Lattice="16.28999089631971 0.0 0.0 0.0 16.28999089631971 0.0 0.0 0.0 34.48637585096406" Properties=species:S:1:pos:R:3:initial_magmoms:R:1 pbc="T T T"
Si      -1.35867464      -1.35681039      -1.35648787       0.00000000
Si      -1.35712045       1.35725022       1.35766040       0.00000000
Si       1.35786924      -1.35770634       1.35766040       0.00000000
Si       1.35988920       1.35653346      -1.35693619       0.00000000
Si       0.00012543       2.71275741       2.71428621       0.00000000
Si       2.71427238      -0.00120546      -2.71338957       0.00000000
Si      -2.71375829       2.71490769       0.00058627       0.00000000
Si      -2.71411667      -2.71524978       0.00006897       0.00000000
Si       2.71461447       0.00097740       2.71501043       0.00000000
Si       2.71498914       2.71536381       0.00013795       0.00000000
