10
Lattice="16.28999089631971 0.0 0.0 0.0 16.28999089631971 0.0 0.0 0.0 34.48637585096406" Properties=species:S:1:pos:R:3:initial_magmoms:R:1 pbc="T T T"
Si      -1.35646830      -1.35790561      -1.35559122       0.00000000
Si      -1.35669636       1.35803866       1.35648787       0.00000000
Si       1.35858600      -1.35746186       1.35676376       0.00000000
Si       1.35812988       1.35774544      -1.35724657       0.00000000
Si      -0.00749340      -2.70650272      -2.71204460       0.00000000
Si       0.00123804       2.71268248       2.71449313       0.00000000
Si      -2.71419093      -2.71354000      -0.00034486       0.00000000
Si       2.71381626       0.00053757       2.71428621       0.00000000
Si      -2.71427238      -0.00059133       2.71401032       0.00000000
Si      -2.71368594       2.71528888      -0.00082767       0.00000000
