10
Lattice="16.28999089631971 0.0 0.0 0.0 16.28999089631971 0.0 0.0 0.0 34.48637585096406" Properties=species:S:1:pos:R:3:initial_magmoms:R:1 pbc="T T T"
Si      -1.22665329       1.96459844       0.01862265       0.00000000
Si      -0.82784151      -0.84269473       2.04249124       0.00000000
Si      -0.73917504      -1.62681618      -1.57251064       0.00000000
Si       2.15453888      -0.33575645      -0.98651782       0.00000000
Si       1.09522787      -1.08364664      -2.99379845       0.00000000
Si      -0.28867509      -3.42824583      -0.09680331       0.00000000
Si       0.41040246      -2.78112558       2.09539337       0.00000000
Si      -3.07237545      -1.15434035       1.32903670       0.00000000
Si      -3.19712427       1.25686310       1.23347489       0.00000000
Si      -1.34009685       2.90650252      -2.13084538       0.00000000
