10
Lattice="16.28999089631971 0.0 0.0 0.0 16.28999089631971 0.0 0.0 0.0 34.48637585096406" Properties=species:S:1:pos:R:3:initial_magmoms:R:1 pbc="T T T"
Si       1.33952672       1.35136953      -1.36309201       0.00000000
Si      -1.35433431       1.35795069       1.35762592       0.00000000
Si       1.35666378      -1.35661491       1.35879845       0.00000000
Si      -1.34245890      -1.36534635      -1.38392869       0.00000000
Si      -0.06116895       2.59998174      -2.82253901       0.00000000
Si       2.71361005      -2.71520091      -0.00448323       0.00000000
Si      -2.71621089      -2.71340901      -0.00103459       0.00000000
Si       2.71435939       2.71538010      -0.00765598       0.00000000
Si      -2.71464705      -0.00009774       2.71552772       0.00000000
Si       0.00122175      -2.71505430       2.71535529       0.00000000
