10
Lattice="16.28999089631971 0.0 0.0 0.0 16.28999089631971 0.0 0.0 0.0 34.48637585096406" Properties=species:S:1:pos:R:3:initial_magmoms:R:1 pbc="T T T"
Si      -1.27211868       1.42734609      -1.41059702       0.00000000
Si       1.42705287      -1.31777955      -1.41373528       0.00000000
Si       1.83589929       0.78537348       1.34417622       0.00000000
Si      -1.99031220      -0.72874944       1.53957614       0.00000000
Si      -2.64549600      -2.56254732       0.04048703       0.00000000
Si      -2.65013865       2.73619872       0.07252489       0.00000000
Si       2.76014502       2.63492379      -0.02924446       0.00000000
Si       2.60312571      -2.80310175       0.04910863       0.00000000
Si      -2.62606203       0.05452263      -2.78163814       0.00000000
Si       0.09053982      -2.65742028      -2.78691456       0.00000000
