10
Lattice="16.28999089631971 0.0 0.0 0.0 16.28999089631971 0.0 0.0 0.0 34.48637585096406" Properties=species:S:1:pos:R:3:initial_magmoms:R:1 pbc="T T T"
Si       0.41016591      -0.87869889      -2.16064163       0.00000000
Si       0.47566800      -1.23111675       2.01138451       0.00000000
Si      -2.10300642       1.31724198       0.25233695       0.00000000
Si       2.13637064       1.31603652       0.18157087       0.00000000
Si       1.09007793       2.83897233       1.66217527       0.00000000
Si      -1.17716427       3.22209684       1.32293260       0.00000000
Si       2.71817125      -1.75029534       2.15846898       0.00000000
Si       1.33441164       0.97085142      -3.53406231       0.00000000
Si      -1.23779565      -2.80372077       2.49095232       0.00000000
Si       2.07849716      -2.63477718      -2.22716588       0.00000000
