10
Lattice="16.28999089631971 0.0 0.0 0.0 16.28999089631971 0.0 0.0 0.0 34.48637585096406" Properties=species:S:1:pos:R:3:initial_magmoms:R:1 pbc="T T T"
Si       0.82435545       1.90078236      -1.01227916       0.00000000
Si       1.79162307      -1.49467266       0.14273919       0.00000000
Si      -0.57464604       0.76136202       2.13553553       0.00000000
Si      -1.87089021      -0.87501735      -1.14080995       0.00000000
Si      -1.08177003       2.71026504      -2.07428769       0.00000000
Si      -1.94170284      -3.02414076      -0.13732483       0.00000000
Si      -2.47357134      -0.55130247       2.60793017       0.00000000
Si       1.24387182       3.33324351       0.80636089       0.00000000
Si       1.44138807      -2.90846547      -1.70680067       0.00000000
Si       2.82670596       1.29222054      -2.04725036       0.00000000
