10
Lattice="16.28999089631971 0.0 0.0 0.0 16.28999089631971 0.0 0.0 0.0 34.48637585096406" Properties=species:S:1:pos:R:3:initial_magmoms:R:1 pbc="T T T"
Si       1.29430566      -0.80472600       1.83164142       0.00000000
Si      -0.90110483      -1.83239694      -1.22854334       0.00000000
Si      -1.66833125       1.75607829       0.06652426       0.00000000
Si       1.96043634       1.05624360      -1.21095528       0.00000000
Si      -2.07717767      -0.34707474      -2.69138725       0.00000000
Si       0.67299040       2.38215186      -2.69793966       0.00000000
Si      -3.50423054       0.97070481      -1.27765197       0.00000000
Si      -0.74408552       3.60562860      -1.30689643       0.00000000
Si      -2.18979044      -3.34345245       0.30948091       0.00000000
Si       3.06989937      -2.54845647       0.50188051       0.00000000
