10
Lattice="16.28999089631971 0.0 0.0 0.0 16.28999089631971 0.0 0.0 0.0 34.48637585096406" Properties=species:S:1:pos:R:3:initial_magmoms:R:1 pbc="T T T"
Si       1.47913200       1.59857028       0.76852932       0.00000000
Si      -2.00062377       1.16698302      -0.16022379       0.00000000
Si       1.21404483      -0.50603256      -2.00586669       0.00000000
Si      -0.40669614      -1.75407462       1.59792712       0.00000000
Si      -3.19818312      -0.92100402      -0.61292670       0.00000000
Si       1.86054606      -2.13719913       1.93716979       0.00000000
Si       2.98206110      -0.11039733       1.70714553       0.00000000
Si      -0.61921548      -1.30906440      -3.24523875       0.00000000
Si      -1.94572647      -2.59056612      -1.68579845       0.00000000
Si       0.76843188       2.23435269       2.92568782       0.00000000
