10
Lattice="16.28999089631971 0.0 0.0 0.0 16.28999089631971 0.0 0.0 0.0 34.48637585096406" Properties=species:S:1:pos:R:3:initial_magmoms:R:1 pbc="T T T"
Si      -0.56493720      -2.15889741       0.59840793       0.00000000
Si      -1.84311576       0.62413506      -1.36231607       0.00000000
Si      -0.49029642       1.23979932       1.97927768       0.00000000
Si       2.13983389       0.02997360      -1.14256876       0.00000000
Si       2.90139139       2.06154837       0.95289358       0.00000000
Si       1.03423581       2.96842896       1.96882830       0.00000000
Si       1.05282270      -2.87036316       2.12987976       0.00000000
Si      -3.69207963       0.61840098       0.13491078       0.00000000
Si      -2.72163546       1.92417480       1.82753754       0.00000000
Si       2.05917233      -2.08930653      -2.46874308       0.00000000
