10
Lattice="16.28999089631971 0.0 0.0 0.0 16.28999089631971 0.0 0.0 0.0 34.48637585096406" Properties=species:S:1:pos:R:3:initial_magmoms:R:1 pbc="T T T"
Si       1.34589265      -1.34646624       1.35800527       0.00000000
Si      -1.35516510      -1.33687143      -1.38820500       0.00000000
Si      -1.36894644       1.36673100       1.35321166       0.00000000
Si       1.36295659       1.35324288      -1.37982826       0.00000000
Si      -2.11035321       0.55405548      -2.75679070       0.00000000
Si      -0.31196979       2.42457102      -2.63024287       0.00000000
Si       2.70313558      -2.70513369      -0.01044938       0.00000000
Si       2.70449905       0.00866628       2.71307919       0.00000000
Si      -0.00964368      -2.70541062       2.71307919       0.00000000
Si       2.70472548       2.72420928      -0.00600063       0.00000000
