10
Lattice="16.28999089631971 0.0 0.0 0.0 16.28999089631971 0.0 0.0 0.0 34.48637585096406" Properties=species:S:1:pos:R:3:initial_magmoms:R:1 pbc="T T T"
Si      -1.47913200      -1.59857028      -0.76852932       0.00000000
Si      -0.71070012       0.63578241       2.15715850       0.00000000
Si       1.50292910      -1.70896761       0.93861622       0.00000000
Si       0.65140452       2.03670612      -1.27761748       0.00000000
Si       1.17454877      -0.53489844       2.98407328       0.00000000
Si      -0.31462506       2.91558324       1.62424024       0.00000000
Si      -0.26508717      -2.10460284      -2.77439600       0.00000000
Si       2.24826665       0.96010002      -2.64586521       0.00000000
Si      -3.47975577      -0.43158726      -0.92875311       0.00000000
Si       0.38141406      -3.73576941       1.16864047       0.00000000
