10
Lattice="16.28999089631971 0.0 0.0 0.0 16.28999089631971 0.0 0.0 0.0 34.48637585096406" Properties=species:S:1:pos:R:3:initial_magmoms:R:1 pbc="T T T"
Si      -2.11315509      -0.25339095      -1.00610609       0.00000000
Si       0.45049995      -1.80142965       1.47570733       0.00000000
Si       0.73917504       1.62681618       1.57251064       0.00000000
Si       1.83440291       0.54316954      -1.42128780       0.00000000
Si       2.89371392       1.29105973       0.58599283       0.00000000
Si      -3.37375674      -0.53688582       0.96741236       0.00000000
Si       2.31765553      -2.70831024       0.45977262       0.00000000
Si      -0.08866647       0.78412145       3.61500188       0.00000000
Si      -2.33320041       0.47247583       2.90154734       0.00000000
Si       1.04280435       2.04002018      -3.08160081       0.00000000
