10
Lattice="16.28999089631971 0.0 0.0 0.0 16.28999089631971 0.0 0.0 0.0 34.48637585096406" Properties=species:S:1:pos:R:3:initial_magmoms:R:1 pbc="T T T"
Si      -0.80940123       1.28526471      -1.77994631       0.00000000
Si      -1.76174069      -1.03459419       1.18836669       0.00000000
Si       1.11837366      -1.37986074      -1.57020006       0.00000000
Si       1.87064586       0.90352485       1.16122590       0.00000000
Si       1.31408172       2.19569652      -2.30572589       0.00000000
Si       2.92073184       0.17749584      -2.10877409       0.00000000
Si       2.81857725      -1.09452510       2.15122684       0.00000000
Si      -1.73779439      -0.23556969      -3.38314985       0.00000000
Si      -2.25899783       3.00113928      -1.11008257       0.00000000
Si      -0.45618516       3.07996659       2.40283958       0.00000000
