10
Lattice="16.28999089631971 0.0 0.0 0.0 16.28999089631971 0.0 0.0 0.0 34.48637585096406" Properties=species:S:1:pos:R:3:initial_magmoms:R:1 pbc="T T T"
Si      -1.31900130       1.34306163      -1.39683695       0.00000000
Si       1.37371941      -1.37306781      -1.39945791       0.00000000
Si      -1.79016349      -1.07227296       1.23623381       0.00000000
Si       1.83417255       1.25099055       1.09014944       0.00000000
Si       0.08553879      -1.75523121       2.61565512       0.00000000
Si       3.38714712      -0.86043780       1.12560145       0.00000000
Si       0.54156105       2.36939679       2.76808499       0.00000000
Si      -2.71732580       2.53873134       0.06062708       0.00000000
Si       2.63388123      -2.78031204      -0.06400675       0.00000000
Si      -2.66946578      -0.01852173      -2.75039347       0.00000000
