10
Lattice="16.28999089631971 0.0 0.0 0.0 16.28999089631971 0.0 0.0 0.0 34.48637585096406" Properties=species:S:1:pos:R:3:initial_magmoms:R:1 pbc="T T T"
Si      -1.73431485       1.35189081      -0.84160599       0.00000000
Si       1.03281858       1.05870339       1.85367822       0.00000000
Si       1.28107818      -0.12386916      -2.00052129       0.00000000
Si      -0.69506172      -2.21234490       0.61709955       0.00000000
Si      -2.32808046      -0.27292266       2.39414901       0.00000000
Si      -3.04577388      -0.58197654      -1.35093556       0.00000000
Si       2.51014239       2.41160418       0.51608890       0.00000000
Si      -0.94845267       1.59378102       3.09046381       0.00000000
Si       3.21294186       1.08742266      -1.41935656       0.00000000
Si       1.79137872      -0.81282213       3.14088292       0.00000000
