10
Lattice="16.28999089631971 0.0 0.0 0.0 16.28999089631971 0.0 0.0 0.0 34.48637585096406" Properties=species:S:1:pos:R:3:initial_magmoms:R:1 pbc="T T T"
Si      -0.80356941       2.13266629      -0.57009460       0.00000000
Si       1.98127125      -0.53507763      -1.23678559       0.00000000
Si      -0.25925535       0.15907185       2.39756316       0.00000000
Si      -1.37962779      -1.86670368      -0.69631480       0.00000000
Si      -3.24678338      -0.95982309       0.31961991       0.00000000
Si      -1.86288042       1.38477610      -2.57737523       0.00000000
Si       1.16080911       3.30142004       0.14436005       0.00000000
Si       0.22983561      -2.16236718       2.77015417       0.00000000
Si      -2.54770583      -0.31270284       2.51181659       0.00000000
Si       0.94845267      -1.59378102      -3.09046381       0.00000000
