10
Lattice="10.86 0.0 0.0 0.0 10.86 0.0 0.0 0.0 10.86" Properties=species:S:1:pos:R:3:initial_magmoms:R:1 pbc="T T T"
Si      -1.35750000       1.35750000      -1.35750000       0.00000000
Si      -1.35750000      -1.35750000       1.35750000       0.00000000
Si       1.35750000      -1.35750000      -1.35750000       0.00000000
Si       1.35750000       1.35750000       1.35750000       0.00000000
Si       2.70518256      -2.46987894      -0.14170128       0.00000000
Si       2.27520258      -0.18869250      -2.94219120       0.00000000
Si      -2.46454668      -2.79860028       0.08668452       0.00000000
Si      -2.60581356       2.70056706       0.05990376       0.00000000
Si      -2.57343990       0.10232292      -2.77012536       0.00000000
Si      -2.43771162      -0.11048964       2.90046708       0.00000000
