10
Lattice="16.28999089631971 0.0 0.0 0.0 16.28999089631971 0.0 0.0 0.0 34.474598006748145" Properties=species:S:1:pos:R:3:initial_magmoms:R:1 pbc="T T T"
Si       1.35368952       1.36355445       1.37169676       0.00000000
Si      -1.36035058      -1.35317935       1.37872958       0.00000000
Si      -1.40829205       1.38028428      -1.32341161       0.00000000
Si       1.49020461      -1.26359901      -1.41724807       0.00000000
Si      -2.70207643      -2.70584135       0.02214994       0.00000000
Si       2.67887613       0.33539481      -2.70835493       0.00000000
Si       2.73431100      -2.70633332      -0.00320269       0.00000000
Si      -0.00381112      -2.70915607       2.73444390       0.00000000
Si       2.70477723       2.74300794      -0.00182715       0.00000000
Si       2.71406253       0.00390960       2.73458180       0.00000000
