10
Lattice="16.28999089631971 0.0 0.0 0.0 16.28999089631971 0.0 0.0 0.0 34.474598006748145" Properties=species:S:1:pos:R:3:initial_magmoms:R:1 pbc="T T T"
Si      -1.68752020       1.75570362       0.16904441       0.00000000
Si      -0.98883884      -1.76819805       1.36870578       0.00000000
Si       1.82548998       0.90297099       1.37289789       0.00000000
Si       0.92696616      -0.51730524      -2.38323029       0.00000000
Si      -2.22424379      -0.38424852       2.88264481       0.00000000
Si       0.51078924       2.36080869       2.86235649       0.00000000
Si       1.48890600      -2.83801122      -1.95584846       0.00000000
Si      -3.44781827       0.89840979      -1.41170110       0.00000000
Si       3.52978236       1.72820610      -0.17282126       0.00000000
Si      -3.49147547       1.05476121       1.58081431       0.00000000
