10
Lattice="16.28999089631971 0.0 0.0 0.0 16.28999089631971 0.0 0.0 0.0 34.474598006748145" Properties=species:S:1:pos:R:3:initial_magmoms:R:1 pbc="T T T"
Si       1.66130307       0.09923868      -1.58690111       0.00000000
Si      -0.15196941       1.84658553       1.43017950       0.00000000
Si      -1.64542032      -1.46403606      -0.91664560       0.00000000
Si       2.29723209      -0.37002735       0.94036414       0.00000000
Si       2.10683457       1.65392370       2.11119109       0.00000000
Si      -1.79181855      -0.27064206      -2.98467447       0.00000000
Si       1.90428471      -2.48031377       2.07275189       0.00000000
Si      -0.22162545       3.75955281       0.02837261       0.00000000
Si       0.52427736      -0.68075910      -3.70726244       0.00000000
Si       1.98456183      -2.15125251      -2.51354435       0.00000000
