10
Lattice="16.28999089631971 0.0 0.0 0.0 16.28999089631971 0.0 0.0 0.0 34.474598006748145" Properties=species:S:1:pos:R:3:initial_magmoms:R:1 pbc="T T T"
Si      -0.12149082      -1.72000734      -1.57504184       0.00000000
Si       1.50232896      -0.20307114       1.81750182       0.00000000
Si       0.77384016       2.12351553      -0.82404678       0.00000000
Si      -2.20358088      -0.54499824       0.85317783       0.00000000
Si      -1.36223496       2.71060713      -1.53146592       0.00000000
Si       0.76242087       1.82961135       2.82274719       0.00000000
Si      -1.78212600      -2.83404365       1.39598068       0.00000000
Si       2.10751875      -2.60350757      -1.64374975       0.00000000
Si       1.58146578       3.22815672       1.12383805       0.00000000
Si      -1.55519001       2.29021110       2.63361944       0.00000000
