10
Lattice="16.28999089631971 0.0 0.0 0.0 16.28999089631971 0.0 0.0 0.0 34.474598006748145" Properties=species:S:1:pos:R:3:initial_magmoms:R:1 pbc="T T T"
Si      -0.94824090      -1.75505365      -1.31320712       0.00000000
Si       0.84546729       1.88977032      -1.22788244       0.00000000
Si      -2.40521850       0.26984385       0.71465882       0.00000000
Si       2.69174331      -0.19820043       0.77850581       0.00000000
Si       1.78225632       0.62221284       2.82853892       0.00000000
Si       0.57207222      -2.16970257      -3.01494318       0.00000000
Si      -0.69182001      -3.74203196       0.10252751       0.00000000
Si       0.06193458       1.70057826      -3.44353162       0.00000000
Si       3.21613470       1.65975552      -1.30214077       0.00000000
Si       0.03921003       2.57802282       2.92895835       0.00000000
