10
Lattice="16.28999089631971 0.0 0.0 0.0 16.28999089631971 0.0 0.0 0.0 34.474598006748145" Properties=species:S:1:pos:R:3:initial_magmoms:R:1 pbc="T T T"
Si       0.90948699      -0.82041327      -2.05003312       0.00000000
Si       1.82488725       0.91157211       1.29002436       0.00000000
Si      -1.03415436      -1.81740199       1.28154360       0.00000000
Si      -1.74304629       1.95580998       0.10041943       0.00000000
Si      -1.78225632      -0.62221284      -2.82853892       0.00000000
Si      -2.21361552      -0.40918851       2.77328098       0.00000000
Si       0.53113545       2.32329609       2.75609538       0.00000000
Si       2.91672450       2.15568828      -0.43058797       0.00000000
Si      -3.45621672       1.05780744       1.45180340       0.00000000
Si      -0.74468106       3.80418741       1.36400344       0.00000000
