10
Lattice="16.28999089631971 0.0 0.0 0.0 16.28999089631971 0.0 0.0 0.0 34.474598006748145" Properties=species:S:1:pos:R:3:initial_magmoms:R:1 pbc="T T T"
Si       1.35671265      -1.35682668       1.35750700       0.00000000
Si      -1.35731538       1.35742941       1.35730016       0.00000000
Si       1.35654975       1.35759231      -1.35795517       0.00000000
Si      -1.35632169      -1.35902583      -1.35736911       0.00000000
Si       0.00149868      -2.71651063      -2.71160102       0.00000000
Si      -2.71416649      -0.00021177       2.71411767       0.00000000
Si      -0.00060273      -2.71493538       2.71366950       0.00000000
Si       2.71472850       0.00014661       2.71449689       0.00000000
Si       2.71494027      -2.71487348      -0.00031027       0.00000000
Si      -2.71496145      -2.71490606       0.00003447       0.00000000
