10
Lattice="16.28999089631971 0.0 0.0 0.0 16.28999089631971 0.0 0.0 0.0 34.474598006748145" Properties=species:S:1:pos:R:3:initial_magmoms:R:1 pbc="T T T"
Si       1.84709052       0.70749099      -1.42376722       0.00000000
Si      -0.85343310      -1.89249075      -1.42797312       0.00000000
Si      -1.81423359       1.75055598      -0.05509044       0.00000000
Si       0.28924524       0.13833468       2.68264234       0.00000000
Si       2.36354868       1.20456405       1.97625744       0.00000000
Si       0.45248733       1.99770786      -2.80002841       0.00000000
Si      -2.28014388      -0.72521451      -2.82036844       0.00000000
Si      -0.76551597       3.45341484      -1.29372896       0.00000000
Si      -2.73665484      -2.72720664      -0.12097143       0.00000000
Si      -3.58938747       0.62426538      -1.34878493       0.00000000
