10
Lattice="16.28999089631971 0.0 0.0 0.0 16.28999089631971 0.0 0.0 0.0 34.474598006748145" Properties=species:S:1:pos:R:3:initial_magmoms:R:1 pbc="T T T"
Si       0.81904491       1.39854537      -1.69890914       0.00000000
Si       0.78353271       0.18919206       2.21564918       0.00000000
Si      -2.31761088       0.46059975      -0.18912775       0.00000000
Si       0.73990809      -2.03268249      -1.00524537       0.00000000
Si      -0.76242087      -1.82961135      -2.82274719       0.00000000
Si       0.01141929       0.29390418      -3.64679396       0.00000000
Si       3.15420012      -0.04082274       2.14139085       0.00000000
Si      -0.06193458      -1.70057826       3.44353162       0.00000000
Si       3.15970614       1.61132535      -1.49878399       0.00000000
Si       3.10840893      -1.94825142      -1.33306450       0.00000000
