10
Lattice="16.28999089631971 0.0 0.0 0.0 16.28999089631971 0.0 0.0 0.0 34.474598006748145" Properties=species:S:1:pos:R:3:initial_magmoms:R:1 pbc="T T T"
Si      -1.32812370       1.33674111       1.40275149       0.00000000
Si       1.40063049      -1.37551131       1.38789983       0.00000000
Si      -1.51848864      -1.18092726      -1.49447952       0.00000000
Si       1.00646136       1.79576073      -1.33310384       0.00000000
Si       0.42899715      -1.60935426      -2.81861510       0.00000000
Si       1.46248362       0.55514691      -3.28895230       0.00000000
Si      -2.69923671       2.60405424      -0.10206900       0.00000000
Si      -2.64119544      -2.78580177      -0.10444775       0.00000000
Si      -2.67734295      -0.01052334       2.76394383       0.00000000
Si       0.03661992       2.70044217       2.76163403       0.00000000
