10
Lattice="16.28999089631971 0.0 0.0 0.0 16.28999089631971 0.0 0.0 0.0 34.474598006748145" Properties=species:S:1:pos:R:3:initial_magmoms:R:1 pbc="T T T"
Si       1.78090425      -0.28377180      -1.50650630       0.00000000
Si      -0.11057652      -2.06777115       1.16475942       0.00000000
Si      -0.24881346       2.05017795       1.17482601       0.00000000
Si      -1.99454760      -0.80391150      -1.30972518       0.00000000
Si      -1.25208198       2.03910075      -2.25374363       0.00000000
Si       0.74033163       1.00613556      -3.24433728       0.00000000
Si       3.49272261       0.19020204       0.13420969       0.00000000
Si      -3.50992485      -0.94534128       0.47485338       0.00000000
Si      -0.25089858       3.66109605      -0.48843638       0.00000000
Si       0.50507145      -3.67756524      -0.69283638       0.00000000
