10
Lattice="16.28999089631971 0.0 0.0 0.0 16.28999089631971 0.0 0.0 0.0 34.474598006748145" Properties=species:S:1:pos:R:3:initial_magmoms:R:1 pbc="T T T"
Si      -1.44480897       0.04465089      -1.89062249       0.00000000
Si      -1.94748579       0.42842700       1.32413557       0.00000000
Si       1.03348647       2.16450117      -0.47033720       0.00000000
Si       0.84079206      -2.17865718       1.27404396       0.00000000
Si      -0.42899715       1.60935426       2.81861510       0.00000000
Si      -3.46481784       0.47242629      -0.61220025       0.00000000
Si       0.57746421       3.40511499       1.48551126       0.00000000
Si       2.37434895      -1.09095759       2.75910502       0.00000000
Si      -1.61691282      -2.12621967      -2.72163314       0.00000000
Si       3.36559545       1.85785821      -0.59744512       0.00000000
