10
Lattice="16.28999089631971 0.0 0.0 0.0 16.28999089631971 0.0 0.0 0.0 34.474598006748145" Properties=species:S:1:pos:R:3:initial_magmoms:R:1 pbc="T T T"
Si       1.35601218      -1.35428544      -1.31465506       0.00000000
Si       1.26293112       1.19304702       1.54694503       0.00000000
Si      -1.37775933       1.38930894      -1.30731196       0.00000000
Si      -1.54502505      -1.12669785       1.38384561       0.00000000
Si       3.00625434      -0.50715657       2.06833914       0.00000000
Si       2.75178825      -2.42934399       0.34364298       0.00000000
Si       2.56868865       2.71865439       0.23773696       0.00000000
Si      -2.70752832      -2.63821437       0.03237167       0.00000000
Si      -0.76532049       1.99917396       3.12195239       0.00000000
Si       2.69698869       0.01534518      -2.68264234       0.00000000
