10
Lattice="16.28999089631971 0.0 0.0 0.0 16.28999089631971 0.0 0.0 0.0 34.474598006748145" Properties=species:S:1:pos:R:3:initial_magmoms:R:1 pbc="T T T"
Si      -1.30575753      -1.52560737       1.30920807       0.00000000
Si      -1.23486345       1.37854029      -1.53942956       0.00000000
Si       1.25460693       1.34582671       1.66157313       0.00000000
Si       1.48730958      -1.32916626      -1.53553393       0.00000000
Si       0.43756569      -3.22581096       1.83060218       0.00000000
Si      -2.56868865      -2.71865439      -0.23773696       0.00000000
Si       2.63383236       2.81213360       0.22277498       0.00000000
Si      -2.53822635       2.94504371      -0.18502527       0.00000000
Si      -2.59273269       0.01793529      -2.91993113       0.00000000
Si       0.12830004      -2.70330921      -2.92037930       0.00000000
