10
Lattice="16.28999089631971 0.0 0.0 0.0 16.28999089631971 0.0 0.0 0.0 34.474598006748145" Properties=species:S:1:pos:R:3:initial_magmoms:R:1 pbc="T T T"
Si      -1.20283731       1.83813102       0.88830746       0.00000000
Si      -1.28734983      -0.75492747      -1.84153063       0.00000000
Si       1.75800051       0.99351081      -1.29693510       0.00000000
Si       0.54780012      -1.64349810       1.72497195       0.00000000
Si       2.61268794       1.34125344       2.03276133       0.00000000
Si       0.32423616       3.56623516       0.16247887       0.00000000
Si       2.55324573       2.68273494       0.09377096       0.00000000
Si       3.42021582      -0.61792857      -1.35302530       0.00000000
Si      -0.89933832      -3.45398499       1.11066874       0.00000000
Si      -3.39934181      -1.41617115      -1.07857288       0.00000000
