10
Lattice="16.28999089631971 0.0 0.0 0.0 16.28999089631971 0.0 0.0 0.0 34.474598006748145" Properties=species:S:1:pos:R:3:initial_magmoms:R:1 pbc="T T T"
Si      -1.35146727       1.35653509       1.36036840       0.00000000
Si       1.36234899      -1.35790128       1.35923074       0.00000000
Si      -1.35959598      -1.33723991      -1.38356292       0.00000000
Si       1.36122498       1.35023086      -1.37726441       0.00000000
Si      -2.70954828       2.71311742      -0.00165478       0.00000000
Si      -2.71094922      -0.00178864       2.71659984       0.00000000
Si      -2.71140534      -2.71763368      -0.00399906       0.00000000
Si       0.00425169       2.71355725       2.71715143       0.00000000
Si       0.00377928      -2.71675402       2.71677221       0.00000000
Si       2.71888245      -0.00156873       2.71687564       0.00000000
