10
Lattice="16.28999089631971 0.0 0.0 0.0 16.28999089631971 0.0 0.0 0.0 34.474598006748145" Properties=species:S:1:pos:R:3:initial_magmoms:R:1 pbc="T T T"
Si      -1.35513252      -1.35772100       1.35492141       0.00000000
Si       1.35708732       1.35659862       1.35754148       0.00000000
Si      -1.35622395       1.35796698      -1.35723121       0.00000000
Si       1.35840681      -1.35715900      -1.35750700       0.00000000
Si      -0.00746082      -2.70720971       2.71425557       0.00000000
Si      -2.71194291       0.00094482      -2.71401424       0.00000000
Si      -2.71083519      -0.00089595       2.71625509       0.00000000
Si      -2.71329498      -2.71427871      -0.00068949       0.00000000
Si       0.00187335      -2.71349155      -2.71515191       0.00000000
Si      -2.71401174       2.71520091      -0.00020685       0.00000000
