10
Lattice="16.28999089631971 0.0 0.0 0.0 16.28999089631971 0.0 0.0 0.0 34.474598006748145" Properties=species:S:1:pos:R:3:initial_magmoms:R:1 pbc="T T T"
Si       1.00045035       1.90263942       1.15265883       0.00000000
Si      -1.15821900       1.26415287      -1.75968789       0.00000000
Si      -1.37922543      -1.46630688       1.43879815       0.00000000
Si       1.54505763      -1.42733469      -1.74879391       0.00000000
Si      -2.47153509       2.73289185      -0.40359434       0.00000000
Si       0.42168294      -2.97423539       2.39984706       0.00000000
Si       2.75400369       2.67584427      -0.31768360       0.00000000
Si      -2.63383236      -2.81213360      -0.22277498       0.00000000
Si      -0.66630987       3.69040176       0.96983993       0.00000000
Si      -2.50457121      -0.08202015      -3.14442984       0.00000000
