10
Lattice="16.28999089631971 0.0 0.0 0.0 16.28999089631971 0.0 0.0 0.0 34.474598006748145" Properties=species:S:1:pos:R:3:initial_magmoms:R:1 pbc="T T T"
Si      -1.00971936       1.83179421       0.97718303       0.00000000
Si      -0.30007809       0.65440188      -2.19482651       0.00000000
Si      -1.06101657      -1.72778256       1.14290251       0.00000000
Si       2.27423061      -0.52033518       0.42600285       0.00000000
Si       0.96360237       2.69855253      -1.95708955       0.00000000
Si       0.08500122      -1.39502673       3.25202512       0.00000000
Si      -0.00589698      -3.58169859       0.14279386       0.00000000
Si       2.28051855      -0.36833319       2.78454931       0.00000000
Si      -0.10968057      -1.36954917      -3.36565346       0.00000000
Si       2.19773277      -2.91681247       0.69466354       0.00000000
