10
Lattice="16.28999089631971 0.0 0.0 0.0 16.28999089631971 0.0 0.0 0.0 34.474598006748145" Properties=species:S:1:pos:R:3:initial_magmoms:R:1 pbc="T T T"
Si      -1.34635221      -1.34617302      -1.38474195       0.00000000
Si       1.36663326       1.37073834      -1.38550039       0.00000000
Si      -1.31331609       1.46873898       1.35609355       0.00000000
Si       1.15821900      -1.26415287       1.75968789       0.00000000
Si       2.15866935       0.63848655       2.91234672       0.00000000
Si       0.49190913       2.42624889       2.72952782       0.00000000
Si       2.70327663      -2.69148756       0.01089398       0.00000000
Si      -2.71047681      -2.69774617      -0.00251665       0.00000000
Si       0.00935046      -2.70299807      -2.74607564       0.00000000
Si      -2.70715365       0.01236411      -2.74397269       0.00000000
