10
Lattice="16.28999089631971 0.0 0.0 0.0 16.28999089631971 0.0 0.0 0.0 34.474598006748145" Properties=species:S:1:pos:R:3:initial_magmoms:R:1 pbc="T T T"
Si       1.34247519       1.37321442       1.35316320       0.00000000
Si       1.35493704      -1.35941679      -1.35795517       0.00000000
Si      -1.35876519       1.35567009      -1.35964443       0.00000000
Si      -1.36663326      -1.37073834       1.38550039       0.00000000
Si       2.54558943       0.04095306       2.82750468       0.00000000
Si      -2.67994935       0.09800064       2.74159394       0.00000000
Si       2.71362078       2.71415835      -0.00296482       0.00000000
Si       2.71379997      -0.00045612      -2.71528981       0.00000000
Si      -0.00122175       2.71368594      -2.71560008       0.00000000
Si      -2.71298547      -2.71691136       0.00075844       0.00000000
