10
Lattice="16.28999089631971 0.0 0.0 0.0 16.28999089631971 0.0 0.0 0.0 34.474598006748145" Properties=species:S:1:pos:R:3:initial_magmoms:R:1 pbc="T T T"
Si       1.38750075       0.99417870       1.58703901       0.00000000
Si      -2.03354586      -0.34318143       1.17282648       0.00000000
Si       0.68067765      -1.89776871      -1.34378611       0.00000000
Si       0.12812085       1.75407462      -1.68094786       0.00000000
Si      -0.78522687      -1.04746329      -3.21437884       0.00000000
Si       3.14064684       1.60173054       0.15479103       0.00000000
Si      -3.47517828      -0.50389857      -0.65039813       0.00000000
Si       2.56567500       1.67545908      -2.15018188       0.00000000
Si      -2.54550798       1.71261657       2.25908720       0.00000000
Si       0.71214993       3.25979190       1.84342673       0.00000000
