10
Lattice="16.28999089631971 0.0 0.0 0.0 16.28999089631971 0.0 0.0 0.0 34.474598006748145" Properties=species:S:1:pos:R:3:initial_magmoms:R:1 pbc="T T T"
Si       1.46552985      -1.28231622      -1.30154091       0.00000000
Si       1.36291914       1.33494921       1.37673005       0.00000000
Si      -1.35108771      -1.37945349       1.37352391       0.00000000
Si      -1.25341613       1.45215576      -1.53819537       0.00000000
Si      -0.02590110      -2.40761313      -2.70652778       0.00000000
Si      -2.69311886       2.69379585      -0.00029303       0.00000000
Si       2.72155401       2.69386101       0.01054234       0.00000000
Si       0.00822645       2.69335602       2.73630553       0.00000000
Si      -2.70730717      -0.02292003       2.73661580       0.00000000
Si      -2.70477723      -2.74300794       0.00182715       0.00000000
