10
Lattice="16.28999089631971 0.0 0.0 0.0 16.28999089631971 0.0 0.0 0.0 34.474598006748145" Properties=species:S:1:pos:R:3:initial_magmoms:R:1 pbc="T T T"
Si      -0.83380365      -0.05154156      -2.19182722       0.00000000
Si       1.27583280       1.76702517       1.03185977       0.00000000
Si      -1.39875714      -1.49890806       1.42597359       0.00000000
Si       2.27185227      -0.70706745      -0.94398397       0.00000000
Si       1.34754138       2.72714148      -1.28114573       0.00000000
Si      -0.39309399      -2.34172008      -2.37788673       0.00000000
Si      -2.14886277       0.09091449       3.01252996       0.00000000
Si       2.96570853       1.27583280      -2.20306594       0.00000000
Si       1.96920036      -2.43416583      -2.53943478       0.00000000
Si      -3.64632102      -1.79965404       0.27665880       0.00000000
