10
Lattice="16.28999089631971 0.0 0.0 0.0 16.28999089631971 0.0 0.0 0.0 34.474598006748145" Properties=species:S:1:pos:R:3:initial_magmoms:R:1 pbc="T T T"
Si      -1.73854278      -1.16170506      -1.03818724       0.00000000
Si      -1.43970273       1.24164009       1.53790233       0.00000000
Si       1.25341613      -1.45215576       1.53819537       0.00000000
Si       1.59591338       1.01625165      -1.62422475       0.00000000
Si       2.65569191       2.54080017       0.04498248       0.00000000
Si      -2.93694921       2.38765788       0.10289984       0.00000000
Si      -0.85062959      -2.26266471      -2.92557260       0.00000000
Si       2.71894598      -2.73447198       0.23665446       0.00000000
Si      -3.64013964       0.48092967      -1.32998389       0.00000000
Si      -0.09912791       2.60020980       2.91527017       0.00000000
