10
Lattice="16.28999089631971 0.0 0.0 0.0 16.28999089631971 0.0 0.0 0.0 34.474598006748145" Properties=species:S:1:pos:R:3:initial_magmoms:R:1 pbc="T T T"
Si      -1.35685111      -1.35764118       1.35681751       0.00000000
Si       1.35731538      -1.35742941      -1.35730016       0.00000000
Si      -1.35807775       1.35790182      -1.35774833       0.00000000
Si       1.35948195       1.35801585       1.35712778       0.00000000
Si       2.71090035       0.00086337       2.71504848       0.00000000
Si       2.71402803      -2.71425609       0.00020685       0.00000000
Si       2.71386513       0.00016290      -2.71525533       0.00000000
Si       2.71466334       2.71523349       0.00006895       0.00000000
Si      -2.71559878      -0.00027693      -2.71446241       0.00000000
Si      -2.71506987      -2.71521720       0.00031027       0.00000000
