10
Lattice="16.28999089631971 0.0 0.0 0.0 16.28999089631971 0.0 0.0 0.0 34.474598006748145" Properties=species:S:1:pos:R:3:initial_magmoms:R:1 pbc="T T T"
Si      -1.34172585      -1.35266200      -1.35657964       0.00000000
Si       1.35653946      -1.35597672       1.35571432       0.00000000
Si      -1.35687555       1.35832699       1.35654172       0.00000000
Si       1.36035058       1.35317935      -1.37872958       0.00000000
Si       0.09239688      -2.65920145      -2.66347446       0.00000000
Si      -2.65994523      -0.02206480      -2.75840376       0.00000000
Si       0.00092853      -2.71413133       2.71298001       0.00000000
Si      -2.71448415       0.00146121       2.71318685       0.00000000
Si       2.71577336       0.00120872       2.71325580       0.00000000
Si       0.00070047       2.71652203       2.71318685       0.00000000
