10
Lattice="16.28999089631971 0.0 0.0 0.0 16.28999089631971 0.0 0.0 0.0 34.474598006748145" Properties=species:S:1:pos:R:3:initial_magmoms:R:1 pbc="T T T"
Si       0.38636363       2.10077469       0.99383427       0.00000000
Si      -1.87411563      -0.82940535       1.18461680       0.00000000
Si      -0.21297546       0.23521131      -2.35916701       0.00000000
Si       2.21595218      -0.90469773      -0.00137898       0.00000000
Si      -0.45809109       3.33115839      -0.83087275       0.00000000
Si       0.76140504       2.38174461      -2.63582581       0.00000000
Si      -0.98295489       2.00347452       2.98970776       0.00000000
Si       0.90711421      -1.65068199      -3.22437648       0.00000000
Si       3.61826054       0.99896796      -0.23918489       0.00000000
Si      -1.81747530      -3.13751590       1.34392401       0.00000000
