10
Lattice="16.28999089631971 0.0 0.0 0.0 16.28999089631971 0.0 0.0 0.0 34.474598006748145" Properties=species:S:1:pos:R:3:initial_magmoms:R:1 pbc="T T T"
Si       0.92054790      -0.44028612       2.09602226       0.00000000
Si      -1.67036031      -1.41105609      -0.82608078       0.00000000
Si      -0.37779768       2.35721187      -0.03406092       0.00000000
Si       1.80043174      -0.52145919      -1.51881374       0.00000000
Si      -0.29677122      -3.30341652      -1.29117784       0.00000000
Si       2.04952376       1.49688810      -2.64616820       0.00000000
Si       0.23757336       2.89874034      -2.24595237       0.00000000
Si       2.19451128       1.56370968       2.60552262       0.00000000
Si       0.75414555       3.25583343       1.81415778       0.00000000
Si       2.07407605      -2.50295850       2.04703382       0.00000000
