10
Lattice="16.28999089631971 0.0 0.0 0.0 16.28999089631971 0.0 0.0 0.0 34.474598006748145" Properties=species:S:1:pos:R:3:initial_magmoms:R:1 pbc="T T T"
Si      -1.35563751      -1.35529542       1.38641397       0.00000000
Si       1.36238157       1.35641943       1.38872377       0.00000000
Si      -1.27762470       1.49967369      -1.44863376       0.00000000
Si       1.23383718      -1.56688623      -1.42402578       0.00000000
Si       2.56210749      -0.15785010      -2.73424882       0.00000000
Si       2.71870326       2.68889256       0.03018253       0.00000000
Si      -2.69967654      -2.72398122      -0.00600548       0.00000000
Si       2.73108366      -2.71290402       0.01097672       0.00000000
Si      -2.72160288       2.72344365       0.00415074       0.00000000
Si       0.00332316      -2.71265967       2.74719606       0.00000000
