10
Lattice="16.28999089631971 0.0 0.0 0.0 16.28999089631971 0.0 0.0 0.0 34.474598006748145" Properties=species:S:1:pos:R:3:initial_magmoms:R:1 pbc="T T T"
Si      -2.22765750       0.18718839      -0.87696531       0.00000000
Si      -0.02963151      -2.35190133       0.52697900       0.00000000
Si      -0.21426237       1.09077840       2.14897527       0.00000000
Si       2.36516369       0.54400455       0.10235514       0.00000000
Si       0.36955494       1.42775334      -2.91651815       0.00000000
Si      -3.21997914      -1.61727120       0.21539741       0.00000000
Si       1.32859678      -0.12044826       3.44908203       0.00000000
Si       2.01653488      -0.39082968      -3.08403031       0.00000000
Si       3.10414814      -0.63402309       2.01552402       0.00000000
Si       0.45444213       3.35305215       1.67481138       0.00000000
