10
Lattice="16.28999089631971 0.0 0.0 0.0 16.28999089631971 0.0 0.0 0.0 34.474598006748145" Properties=species:S:1:pos:R:3:initial_magmoms:R:1 pbc="T T T"
Si       1.12872988      -0.96058872      -1.82212142       0.00000000
Si       0.45173799       2.30381325       0.29393059       0.00000000
Si      -2.28314124      -0.51588801      -0.36281087       0.00000000
Si       0.47291499      -0.73345725       2.20816819       0.00000000
Si      -0.89813286       2.81939175       2.20406571       0.00000000
Si      -1.18765503      -2.47598226       2.50637362       0.00000000
Si      -0.98186346       0.82774377       3.51241191       0.00000000
Si      -2.38469310      -1.07712738      -2.67412711       0.00000000
Si      -0.65735037       3.39569937      -1.48165010       0.00000000
Si       0.38648025      -3.16052064      -2.02010915       0.00000000
