10
Lattice="16.28999089631971 0.0 0.0 0.0 16.28999089631971 0.0 0.0 0.0 34.474598006748145" Properties=species:S:1:pos:R:3:initial_magmoms:R:1 pbc="T T T"
Si      -1.34513046      -1.35562122      -1.38332849       0.00000000
Si       1.36397799       1.37052366      -1.37819177       0.00000000
Si       1.51345423      -1.24976880       1.37950181       0.00000000
Si      -1.78406451       0.97285509       1.32520429       0.00000000
Si       2.54531806       0.36336474       2.80623385       0.00000000
Si      -2.69387730      -2.69299764      -0.00044817       0.00000000
Si       2.73242500      -2.69838963      -0.02689020       0.00000000
Si       2.71279229       2.72630973      -0.00899788       0.00000000
Si      -2.70817992       0.00754227      -2.73466454       0.00000000
Si       0.00599472      -2.70666495      -2.73849122       0.00000000
