10
Lattice="16.28999089631971 0.0 0.0 0.0 16.28999089631971 0.0 0.0 0.0 34.474598006748145" Properties=species:S:1:pos:R:3:initial_magmoms:R:1 pbc="T T T"
Si      -0.74520234       2.10871674       0.66091289       0.00000000
Si      -1.75498686      -1.57768650      -0.34019552       0.00000000
Si       1.68635709      -0.58125978       1.71628435       0.00000000
Si      -0.41550903       1.86559596      -1.89834480       0.00000000
Si       1.01765259      -2.84353353       2.19044823       0.00000000
Si      -2.96220618       1.81128510      -1.40390984       0.00000000
Si      -3.20310270      -0.49664952      -1.99711458       0.00000000
Si       3.76464085      -1.06826562       0.61320002       0.00000000
Si      -0.99574254      -3.74712354      -0.83549235       0.00000000
Si       1.84497282       2.81830262      -2.20023902       0.00000000
