10
Lattice="16.28999089631971 0.0 0.0 0.0 16.28999089631971 0.0 0.0 0.0 34.474598006748145" Properties=species:S:1:pos:R:3:initial_magmoms:R:1 pbc="T T T"
Si      -1.72366119       1.62582345      -0.01082503       0.00000000
Si       2.01458430       0.87643458      -0.90557925       0.00000000
Si      -1.02247443      -2.08510371      -0.58196601       0.00000000
Si       1.01651229      -0.56049003       2.10005579       0.00000000
Si      -3.40485435       0.23692176       1.04496012       0.00000000
Si       1.60964748      -2.83548627       1.69328978       0.00000000
Si      -0.56078325       3.53904878       0.87830982       0.00000000
Si       3.34879787      -0.98763012      -1.32248079       0.00000000
Si      -1.30873860      -1.97558604      -2.92992877       0.00000000
Si      -3.18308229      -2.00293695       0.35501961       0.00000000
