10
Lattice="16.28999089631971 0.0 0.0 0.0 16.28999089631971 0.0 0.0 0.0 34.474598006748145" Properties=species:S:1:pos:R:3:initial_magmoms:R:1 pbc="T T T"
Si       0.49801788      -1.16390421      -1.97394764       0.00000000
Si       1.10908836      -1.09188612       1.77558069       0.00000000
Si      -2.26427742       0.46219617       0.53401182       0.00000000
Si       1.07429292       2.13886071       0.01420354       0.00000000
Si       2.88269699      -0.82642428      -1.93275047       0.00000000
Si      -0.31555359       3.26509659       1.63633771       0.00000000
Si      -2.45581524      -0.35521974       2.76662251       0.00000000
Si      -2.40616332       2.76968006       0.65880994       0.00000000
Si      -0.24078249      -0.57630762       3.68571581       0.00000000
Si       0.65735037      -3.39569937       1.48165010       0.00000000
