10
Lattice="16.28999089631971 0.0 0.0 0.0 16.28999089631971 0.0 0.0 0.0 34.474598006748145" Properties=species:S:1:pos:R:3:initial_magmoms:R:1 pbc="T T T"
Si       1.89110610       0.65655216       1.47914866       0.00000000
Si       1.93476330       0.50020074      -1.51336675       0.00000000
Si      -0.83799018      -1.97167644       1.30216287       0.00000000
Si      -1.85694597       1.74329064      -0.13458891       0.00000000
Si       1.38668625      -1.36710567      -2.81998922       0.00000000
Si       0.45698337       1.96309161       2.78604348       0.00000000
Si      -2.28196836      -0.74790648       2.75494738       0.00000000
Si      -0.86123601       3.29368880       1.38421936       0.00000000
Si      -2.58809004      -1.85078835      -2.04275897       0.00000000
Si      -3.59443737       0.74934000       1.26237227       0.00000000
