10
Lattice="16.28999089631971 0.0 0.0 0.0 16.28999089631971 0.0 0.0 0.0 34.474598006748145" Properties=species:S:1:pos:R:3:initial_magmoms:R:1 pbc="T T T"
Si      -1.35409767       1.35558864       1.35998918       0.00000000
Si      -1.34057482      -1.35856971      -1.37736783       0.00000000
Si       1.36077049      -1.35900954       1.35923074       0.00000000
Si       1.35770797       1.34715042      -1.39227466       0.00000000
Si      -2.70927691       2.71075374       0.00037922       0.00000000
Si      -2.70978190      -2.71813311      -0.00306824       0.00000000
Si      -2.71163896      -0.00224802       2.71680669       0.00000000
Si       0.00305275       2.71262709       2.71677221       0.00000000
Si       2.71546318      -2.71741635      -0.00034475       0.00000000
Si       0.00275790      -2.71710684       2.71625509       0.00000000
