10
Lattice="16.28999089631971 0.0 0.0 0.0 16.28999089631971 0.0 0.0 0.0 34.474598006748145" Properties=species:S:1:pos:R:3:initial_magmoms:R:1 pbc="T T T"
Si       0.52566201      -2.04017589      -0.99024891       0.00000000
Si       1.92637395       0.77266728       1.06219743       0.00000000
Si      -1.77555136       0.51357483       1.43355801       0.00000000
Si      -0.73898445       1.17802764      -1.91316889       0.00000000
Si       0.55412064      -0.17658360      -3.40074862       0.00000000
Si      -0.78173429       2.21651514       2.63765297       0.00000000
Si       1.33025769       2.87775882       1.87469521       0.00000000
Si      -3.31841051       1.72480149       0.13345124       0.00000000
Si      -3.10414814       0.63402309      -2.01552402       0.00000000
Si       2.45294820      -0.73335951       2.79937340       0.00000000
