10
Lattice="16.28999089631971 0.0 0.0 0.0 16.28999089631971 0.0 0.0 0.0 34.474598006748145" Properties=species:S:1:pos:R:3:initial_magmoms:R:1 pbc="T T T"
Si       0.73467900      -0.91206081      -2.02752119       0.00000000
Si       0.04351059      -1.72929753       1.58724585       0.00000000
Si      -2.15803404       0.96112629      -0.16420260       0.00000000
Si       1.44713844       1.81048689       0.61430321       0.00000000
Si      -1.20974427      -0.42749847       3.19714153       0.00000000
Si       2.40124374      -2.04222843       1.73793441       0.00000000
Si      -0.53799354      -2.95000497      -2.18362226       0.00000000
Si       0.89933832       3.45398499      -1.11066874       0.00000000
Si       0.20810475       0.59396598      -3.76469716       0.00000000
Si      -2.50000349       2.03781384      -2.18924162       0.00000000
