10
Lattice="16.28999089631971 0.0 0.0 0.0 16.28999089631971 0.0 0.0 0.0 34.474598006748145" Properties=species:S:1:pos:R:3:initial_magmoms:R:1 pbc="T T T"
Si      -1.35715041      -1.35703845      -1.35678304       0.00000000
Si      -1.35761625       1.35687555       1.35692094       0.00000000
Si       1.35792951      -1.35738054       1.35716226       0.00000000
Si       1.35876030       1.35707103      -1.35750700       0.00000000
Si       0.00100835      -2.71200807       2.71491058       0.00000000
Si       0.00007656       2.71381626       2.71439347       0.00000000
Si      -2.71553878       0.00042354       2.71280763       0.00000000
Si      -2.71232965      -0.00187335      -2.71639299       0.00000000
Si       2.71532634       0.00260640       2.71377292       0.00000000
Si       2.71475619      -2.71458189      -0.00020685       0.00000000
