10
Lattice="16.28999089631971 0.0 0.0 0.0 16.28999089631971 0.0 0.0 0.0 34.474598006748145" Properties=species:S:1:pos:R:3:initial_magmoms:R:1 pbc="T T T"
Si      -1.34361712      -1.34811153       1.35288741       0.00000000
Si      -1.35443205       1.35700587      -1.35712778       0.00000000
Si       1.36081773      -1.35420399      -1.35774833       0.00000000
Si       1.36041048       1.37026593       1.37874337       0.00000000
Si      -2.56258788       0.10050930       2.75927942       0.00000000
Si       0.03064149      -2.65725738       2.71842700       0.00000000
Si       2.73816981      -0.01904301       2.68605533       0.00000000
Si      -2.71212486       0.00006516      -2.71460031       0.00000000
Si      -2.71391763      -2.71375110       0.00062054       0.00000000
Si       0.00342090      -2.71419093      -2.71435899       0.00000000
