10
Lattice="16.28999089631971 0.0 0.0 0.0 16.28999089631971 0.0 0.0 0.0 34.474598006748145" Properties=species:S:1:pos:R:3:initial_magmoms:R:1 pbc="T T T"
Si      -0.11735350      -1.58767227       1.72214503       0.00000000
Si      -0.92274739       2.16567309       0.35381300       0.00000000
Si       2.24825490       0.80350425      -0.59082599       0.00000000
Si      -0.65111164      -1.68117687      -1.67312213       0.00000000
Si       3.05557101      -1.29782430      -1.30424372       0.00000000
Si      -1.66952986       2.70170369      -1.86617998       0.00000000
Si       1.09373536      -0.67926042       3.49879443       0.00000000
Si       1.42717211      -2.16818271      -2.77620645       0.00000000
Si       0.70131741       3.50216171       1.47203168       0.00000000
Si       1.21686007      -3.45173697       1.30524348       0.00000000
