10
Lattice="16.28999089631971 0.0 0.0 0.0 16.28999089631971 0.0 0.0 0.0 34.474598006748145" Properties=species:S:1:pos:R:3:initial_magmoms:R:1 pbc="T T T"
Si       0.59611626      -2.10509154      -0.81249778       0.00000000
Si      -2.11199198      -0.66124368       0.76295775       0.00000000
Si       1.28734983       0.75492747       1.84153063       0.00000000
Si      -0.27328104       1.49266899      -1.84652945       0.00000000
Si       3.04535034       1.74843828       0.54459553       0.00000000
Si      -1.33025769      -2.87775882      -1.87469521       0.00000000
Si      -1.77002253      -1.73793123       2.78799677       0.00000000
Si       0.08451252       2.59305849       2.72983809       0.00000000
Si       2.45651571      -1.92241548      -2.16497149       0.00000000
Si      -3.44620556       1.20282102       1.17985930       0.00000000
