10
Lattice="16.28999089631971 0.0 0.0 0.0 16.28999089631971 0.0 0.0 0.0 34.474598006748145" Properties=species:S:1:pos:R:3:initial_magmoms:R:1 pbc="T T T"
Si      -1.21108887      -0.90841185      -1.77664940       0.00000000
Si       2.31962921       0.48182562      -0.22667061       0.00000000
Si       0.17551823      -2.00785653       1.27018280       0.00000000
Si      -1.52141337       1.62022020       0.91471502       0.00000000
Si       2.18606750       1.09589346       2.01852332       0.00000000
Si      -2.20916088      -2.34533646       1.22898563       0.00000000
Si       0.12312471      -2.77247655      -2.19355095       0.00000000
Si      -0.29814284       3.57049826       0.27097049       0.00000000
Si      -1.09373536       0.67926042      -3.49879443       0.00000000
Si      -1.63288584       0.95742846       3.21713681       0.00000000
