10
Lattice="16.2900001489832 0.0 0.0 0.0 16.2900001489832 0.0 0.0 0.0 29.15939337494521" Properties=species:S:1:pos:R:3:initial_magmoms:R:1 pbc="T T T"
Si       0.12390174      -2.33077322      -0.20283274       0.00000000
Si       0.91194679       1.12245920      -1.89859726       0.00000000
Si      -2.23146938       0.85993282       0.16154304       0.00000000
Si       0.77017492       0.38503044       2.24431103       0.00000000
Si      -1.61709202       2.95319784       0.97753950       0.00000000
Si      -0.18937125      -1.47944152       3.38260627       0.00000000
Si      -0.22941207       2.49850321       2.81895520       0.00000000
Si      -1.66014650      -3.00240993      -1.62796893       0.00000000
Si      -0.05618421      -3.28890216       1.94889722       0.00000000
Si       1.85715776       3.24579882      -1.15095042       0.00000000
