10
Lattice="16.2900001489832 0.0 0.0 0.0 16.2900001489832 0.0 0.0 0.0 29.15939337494521" Properties=species:S:1:pos:R:3:initial_magmoms:R:1 pbc="T T T"
Si       1.28782225      -1.39772013      -1.37027279       0.00000000
Si       1.36656811       1.36132534       1.33070350       0.00000000
Si      -1.42413697      -1.45286178       1.19184647       0.00000000
Si      -1.36301689       1.24580317      -1.47820046       0.00000000
Si      -0.53072820      -2.22391636      -2.66867302       0.00000000
Si      -2.29930094      -0.55358861      -2.74872480       0.00000000
Si      -2.70415631      -0.01320044       2.54939118       0.00000000
Si       2.69319314       2.68678564      -0.10866831       0.00000000
Si      -0.00293220       2.71703617       2.68197894       0.00000000
Si       2.74561437      -0.00054915       2.67022771       0.00000000
