10
Lattice="16.2900001489832 0.0 0.0 0.0 16.2900001489832 0.0 0.0 0.0 29.15939337494521" Properties=species:S:1:pos:R:3:initial_magmoms:R:1 pbc="T T T"
Si      -1.27765729      -1.31242015       1.46251853       0.00000000
Si       1.28001934      -1.43966134      -1.35754472       0.00000000
Si       1.33768594       1.32588547       1.45196283       0.00000000
Si      -1.40585959       1.32395836      -1.39562689       0.00000000
Si       2.70415631       0.01320044      -2.54939118       0.00000000
Si      -2.70883154      -2.64723905       0.11401323       0.00000000
Si       2.60729597      -2.76959325       0.10657758       0.00000000
Si      -2.72324819       2.67188582       0.05849374       0.00000000
Si       2.70122411       2.73023660       0.13258776       0.00000000
Si      -2.54047439       0.01077361       2.93436807       0.00000000
