10
Lattice="16.2900001489832 0.0 0.0 0.0 16.2900001489832 0.0 0.0 0.0 29.15939337494521" Properties=species:S:1:pos:R:3:initial_magmoms:R:1 pbc="T T T"
Si      -0.80546883       0.88097950      -1.14170689       0.00000000
Si       0.30181461      -1.18946323       1.51593854       0.00000000
H        1.62941378      -1.02801304      -1.50786139       0.00000000
Si      -2.78035442       1.07882155       0.17204042       0.00000000
Si      -1.44131641      -2.60307686       0.91152264       0.00000000
Si      -0.47957109       0.27837981       3.14259530       0.00000000
H        2.95809135       1.20576952       0.35002936       0.00000000
Si      -1.50162199       2.13739463       1.96490572       0.00000000
Si       1.52665646      -2.54946647      -1.51844625       0.00000000
Si      -1.32006994      -0.34160130      -3.09932276       0.00000000
