10
Lattice="16.2900001489832 0.0 0.0 0.0 16.2900001489832 0.0 0.0 0.0 29.15939337494521" Properties=species:S:1:pos:R:3:initial_magmoms:R:1 pbc="T T T"
Si       0.40467618      -1.22647411       0.78173418       0.00000000
H       -0.94809430       1.23657391      -1.71235622       0.00000000
Si       0.30937968       2.07428717      -1.67395330       0.00000000
Si       1.23320188       2.43173864       0.45657778       0.00000000
Si       1.79113439      -2.12975462      -0.87215746       0.00000000
H       -1.85025080       1.97136695       1.27674404       0.00000000
Si       1.73034011      -0.24060330       2.47067540       0.00000000
Si      -1.67291786      -2.29861676       1.14917169       0.00000000
H       -3.17892837      -0.26241561      -0.58114671       0.00000000
Si       3.05623209       1.01713132       0.98004721       0.00000000
