10
Lattice="16.2900001489832 0.0 0.0 0.0 16.2900001489832 0.0 0.0 0.0 29.15939337494521" Properties=species:S:1:pos:R:3:initial_magmoms:R:1 pbc="T T T"
Si      -1.30181536      -1.25776720       1.52415274       0.00000000
Si      -1.32141223       1.44627508      -1.35075641       0.00000000
Si       1.39196422       1.36425493       1.36520489       0.00000000
Si       1.29109654      -1.41413491      -1.42024616       0.00000000
Si      -2.63243144      -2.60995124       0.15547205       0.00000000
Si      -2.56380167       2.77296528       0.16886788       0.00000000
Si       0.09453087      -2.71774217       2.71295205       0.00000000
Si       2.74587501      -0.10225233      -2.72544977       0.00000000
Si       2.76543930       2.73310364      -0.01130510       0.00000000
Si       2.76925116      -2.73479781      -0.05640010       0.00000000
