10
Lattice="16.2900001489832 0.0 0.0 0.0 16.2900001489832 0.0 0.0 0.0 29.15939337494521" Properties=species:S:1:pos:R:3:initial_magmoms:R:1 pbc="T T T"
Si      -1.27208611      -1.38168523      -1.39489790       0.00000000
Si       1.42537501      -1.27782019       1.36550523       0.00000000
Si       1.40041873       1.38240199      -1.31333908       0.00000000
Si      -1.25116975       1.35330805       1.50506209       0.00000000
Si       0.68084056       2.20978739       2.63143114       0.00000000
Si       2.31401081       0.40770612       2.73643411       0.00000000
Si      -2.66843234       0.07828974      -2.58369721       0.00000000
Si      -2.65401569      -2.66835089       0.01630010       0.00000000
Si       0.06761979      -2.64800468       2.67519939       0.00000000
Si       2.69928560      -0.08120565      -2.65050138       0.00000000
