10
Lattice="16.2900001489832 0.0 0.0 0.0 16.2900001489832 0.0 0.0 0.0 29.15939337494521" Properties=species:S:1:pos:R:3:initial_magmoms:R:1 pbc="T T T"
Si      -0.79807969      -0.74386657       2.12385358       0.00000000
Si       0.78190209       2.24806889      -0.39443911       0.00000000
Si       1.86738625      -1.49327010      -0.43374598       0.00000000
Si      -1.73719820      -0.72102799      -1.56271021       0.00000000
H        1.18976948       1.92093311      -1.99359857       0.00000000
Si      -1.74329066      -2.86720618       1.37620673       0.00000000
Si      -0.56731555      -2.07523688      -3.02811552       0.00000000
Si       1.03968482      -0.28181700       3.58753849       0.00000000
Si       3.33778845      -0.22289607      -1.72609029       0.00000000
Si      -3.29903454      -1.84410621      -0.14428068       0.00000000
