10
Lattice="16.2900001489832 0.0 0.0 0.0 16.2900001489832 0.0 0.0 0.0 29.15939337494521" Properties=species:S:1:pos:R:3:initial_magmoms:R:1 pbc="T T T"
Si      -0.59740318      -1.39281130       0.19011924       0.00000000
Si      -1.52179552       1.85073950      -1.01223918       0.00000000
Si       0.78819166       2.56751579      -1.05102117       0.00000000
Si      -1.52122537      -1.75026278      -1.94041183       0.00000000
Si      -2.66201408       1.11459439       0.98987393       0.00000000
Si       1.22562703      -2.80741863       0.71358867       0.00000000
Si      -2.57412953      -1.14854275       1.76912956       0.00000000
Si      -2.23588397       0.33526449      -2.71739303       0.00000000
Si       1.48377466       3.06209649       1.18865351       0.00000000
Si       2.82952416      -1.36710568       1.77504891       0.00000000
