10
Lattice="16.2900001489832 0.0 0.0 0.0 16.2900001489832 0.0 0.0 0.0 29.15939337494521" Properties=species:S:1:pos:R:3:initial_magmoms:R:1 pbc="T T T"
Si      -1.60348987       0.43455204      -1.66902536       0.00000000
Si       1.75239677       1.50281767      -0.53939046       0.00000000
Si      -1.69209119       0.96857083       1.36920848       0.00000000
Si       1.29694465      -1.68147011       1.10560756       0.00000000
Si      -0.19440486       2.29223108       2.58139362       0.00000000
Si      -2.68737761      -1.03495258       2.13198905       0.00000000
Si       1.43856991       3.14401890       1.10441202       0.00000000
Si      -1.04055634       2.64277559      -2.32919402       0.00000000
Si      -0.84887191      -0.76753594      -3.52784921       0.00000000
Si       2.74493019      -0.38507931       2.58016892       0.00000000
