10
Lattice="16.2900001489832 0.0 0.0 0.0 16.2900001489832 0.0 0.0 0.0 29.15939337494521" Properties=species:S:1:pos:R:3:initial_magmoms:R:1 pbc="T T T"
Si       1.29536452       1.33556824       1.39017408       0.00000000
Si      -1.30530142       1.44891406      -1.28592925       0.00000000
Si      -1.33954300      -1.19793403       1.55133805       0.00000000
Si       1.34964280      -1.31287627      -1.46024410       0.00000000
Si      -2.60612309       0.09583407      -2.65658111       0.00000000
Si      -2.67740813      -2.58308903       0.15294102       0.00000000
Si       2.72471430      -2.63078615      -0.03093812       0.00000000
Si       2.67792941       2.73587295       0.02297760       0.00000000
Si       0.07312581      -2.65988009       2.78746305       0.00000000
Si       2.78387958       0.05414796       2.70013067       0.00000000
