10
Lattice="16.2900001489832 0.0 0.0 0.0 16.2900001489832 0.0 0.0 0.0 29.15939337494521" Properties=species:S:1:pos:R:3:initial_magmoms:R:1 pbc="T T T"
Si       0.75461797      -1.20208798      -1.85882385       0.00000000
Si       1.60348987      -0.43455204       1.66902536       0.00000000
Si       0.56293354       2.20822355      -0.66016867       0.00000000
Si      -2.30897720       0.57308221      -0.01944932       0.00000000
Si      -0.08860131       0.53401878       3.03823383       0.00000000
Si       2.85410577       2.02813760      -0.98856175       0.00000000
Si       2.70277166       0.13651020      -2.45667889       0.00000000
Si      -1.08028765      -0.92206288      -3.40094753       0.00000000
Si       3.35588664       1.06826563       1.12963490       0.00000000
Si      -3.00456021       0.07850151      -2.25912400       0.00000000
