10
Lattice="16.2900001489832 0.0 0.0 0.0 16.2900001489832 0.0 0.0 0.0 29.15939337494521" Properties=species:S:1:pos:R:3:initial_magmoms:R:1 pbc="T T T"
Si      -1.09020826       1.36093177      -1.57536539       0.00000000
Si       1.18618894       1.78233779       0.97783110       0.00000000
Si       1.75065374      -1.28733355      -1.10135029       0.00000000
Si      -1.67179385      -0.85600693       1.58294683       0.00000000
H        0.93724516      -2.32790618       2.16453093       0.00000000
Si      -2.48096702       2.49271211      -0.03472884       0.00000000
Si      -0.69691879       3.16434882       1.39040735       0.00000000
Si       2.60728131       2.45617364      -0.71201407       0.00000000
H       -0.91197937      -3.61255188      -0.05546117       0.00000000
Si       0.81508645       2.77752648      -2.37786105       0.00000000
