10
Lattice="16.2900001489832 0.0 0.0 0.0 16.2900001489832 0.0 0.0 0.0 29.15939337494521" Properties=species:S:1:pos:R:3:initial_magmoms:R:1 pbc="T T T"
Si      -1.20971170       1.43961247      -1.43012245       0.00000000
Si       1.89236045       0.89384860       1.13517518       0.00000000
Si       1.29267667      -1.41786532      -1.41886692       0.00000000
Si      -1.87823702      -0.73016668       1.34830119       0.00000000
Si      -2.47252880       2.76280624       0.04172709       0.00000000
Si      -2.78218542      -2.52104042       0.06438394       0.00000000
Si      -2.64088595       0.10479357      -2.77862775       0.00000000
Si       3.57844062      -0.83018728       1.10091290       0.00000000
Si       2.67524156      -0.01756062      -2.78606340       0.00000000
Si       2.78119173      -2.69928560      -0.10891033       0.00000000
