10
Lattice="16.2900001489832 0.0 0.0 0.0 16.2900001489832 0.0 0.0 0.0 29.15939337494521" Properties=species:S:1:pos:R:3:initial_magmoms:R:1 pbc="T T T"
Si      -0.95136859       0.96793552       0.68486667       0.00000000
Si       2.19100502      -1.09661023       0.83282143       0.00000000
Si      -2.98370901      -0.18712323       0.29541381       0.00000000
Si       2.81685054       0.20440692      -1.05889421       0.00000000
Si       0.19523565       1.35839053       2.74121625       0.00000000
Si      -0.75419443       2.94876696      -0.60569892       0.00000000
Si       1.24670629       0.56687572      -2.84376984       0.00000000
Si      -2.33088725      -1.38103363      -1.67191214       0.00000000
Si       1.09758763      -3.09767385       0.09599272       0.00000000
Si       1.34363179      -0.62089336       3.05925776       0.00000000
