10
Lattice="16.2900001489832 0.0 0.0 0.0 16.2900001489832 0.0 0.0 0.0 29.15939337494521" Properties=species:S:1:pos:R:3:initial_magmoms:R:1 pbc="T T T"
Si       0.50115208      -0.68683528      -1.44793884       0.00000000
Si       0.66449354       0.50147136       1.51634677       0.00000000
H       -1.73376426       1.60111153      -0.88186753       0.00000000
Si       0.46179707       1.48747249      -2.59582752       0.00000000
Si       1.59516243      -1.62447139       2.08781257       0.00000000
Si       2.83419613      -0.59054509      -1.18051804       0.00000000
Si      -0.17219670      -2.99112096       1.17209098       0.00000000
Si       2.05072857       2.30280329       0.96269737       0.00000000
Si      -1.23682152       1.04182696       2.84998079       0.00000000
Si       0.20309232      -3.15801201      -1.14042387       0.00000000
