10
Lattice="16.2900001489832 0.0 0.0 0.0 16.2900001489832 0.0 0.0 0.0 29.15939337494521" Properties=species:S:1:pos:R:3:initial_magmoms:R:1 pbc="T T T"
Si       1.33478632       1.37275831      -1.35321455       0.00000000
Si      -1.39224115       1.36407574       1.30476622       0.00000000
Si      -1.36184401      -1.28627470      -1.42362574       0.00000000
Si       1.35962857      -1.27935145       1.46934183       0.00000000
Si      -2.68846904      -2.61173500       0.01574607       0.00000000
Si       2.64108143       2.70111008       0.11821218       0.00000000
Si       2.71300178      -0.03764619      -2.65651405       0.00000000
Si       0.01780497      -2.73829527      -2.64439832       0.00000000
Si       2.71678106      -2.68024911       0.14474723       0.00000000
Si      -0.07700283       2.64797210       2.75681653       0.00000000
