10
Lattice="16.2900001489832 0.0 0.0 0.0 16.2900001489832 0.0 0.0 0.0 29.15939337494521" Properties=species:S:1:pos:R:3:initial_magmoms:R:1 pbc="T T T"
Si       0.85134799       1.66926890       1.37865612       0.00000000
Si      -2.09650673      -0.36541728       0.96680885       0.00000000
Si      -0.49422231       0.43075647      -2.26737611       0.00000000
Si       1.71701326      -1.60054138       0.40400340       0.00000000
H       -1.81128512      -0.65594944       2.42454524       0.00000000
H        2.12488065      -1.92767717      -1.19515606       0.00000000
Si       2.63521052       2.58502754      -0.02933435       0.00000000
Si      -2.97890346      -2.21508164      -0.07776810       0.00000000
Si       2.23350074       0.51505722       2.93057735       0.00000000
Si       3.63842040      -0.32169492       1.23116791       0.00000000
