10
Lattice="16.2900001489832 0.0 0.0 0.0 16.2900001489832 0.0 0.0 0.0 29.15939337494521" Properties=species:S:1:pos:R:3:initial_magmoms:R:1 pbc="T T T"
H       -1.37453392       0.19585467       0.62019114       0.00000000
Si       1.07365762      -1.16638030       1.70357924       0.00000000
Si      -0.55734607      -1.58467492      -1.65310433       0.00000000
Si       0.63301312       2.34013997      -0.63710359       0.00000000
H        2.15961419       1.14764680      -1.04585996       0.00000000
Si      -1.61085295       0.03880278      -2.99554448       0.00000000
Si      -1.53780859       3.08785098      -0.15349505       0.00000000
Si      -2.80386741       1.45717309      -1.50707409       0.00000000
Si      -0.28233828      -0.44251785       3.51256969       0.00000000
Si       3.30654423      -0.88454701       1.12024557       0.00000000
