10
Lattice="16.2900001489832 0.0 0.0 0.0 16.2900001489832 0.0 0.0 0.0 29.15939337494521" Properties=species:S:1:pos:R:3:initial_magmoms:R:1 pbc="T T T"
Si       0.92936080       1.34830702       1.70311269       0.00000000
Si       1.28099674      -2.02988063       0.06382991       0.00000000
Si      -2.19405125       1.03091266       0.18554122       0.00000000
Si       0.77698414      -0.32456196      -2.31117352       0.00000000
H       -1.91350487      -1.07698078       2.34858502       0.00000000
Si      -1.34519563       2.94106016      -0.69909646       0.00000000
Si       2.26396793       2.55450008       0.15856878       0.00000000
Si       2.83529082      -1.30784266      -1.63094319       0.00000000
Si       0.74095066       3.16533273      -1.60650762       0.00000000
Si      -0.14095737      -3.51828165      -0.96094781       0.00000000
