10
Lattice="16.2900001489832 0.0 0.0 0.0 16.2900001489832 0.0 0.0 0.0 29.15939337494521" Properties=species:S:1:pos:R:3:initial_magmoms:R:1 pbc="T T T"
Si      -0.34432662      -0.51751701      -2.26641385       0.00000000
Si      -0.75267783       2.24886710      -0.16924112       0.00000000
Si       1.97663025      -0.47721555       1.34322746       0.00000000
Si      -1.65931408      -1.72952561       0.61946215       0.00000000
Si      -2.96567435       1.79957261      -0.85629475       0.00000000
Si       0.81265761      -1.59586615       3.10281314       0.00000000
H        2.58353049       1.54753372      -1.99421091       0.00000000
Si      -2.65184750       0.15837138      -2.50009723       0.00000000
Si      -3.19811636      -0.42376806       1.90517708       0.00000000
Si      -1.18014372       3.00043721       1.97285661       0.00000000
