10
Lattice="16.2900001489832 0.0 0.0 0.0 16.2900001489832 0.0 0.0 0.0 29.15939337494521" Properties=species:S:1:pos:R:3:initial_magmoms:R:1 pbc="T T T"
Si       2.04459050      -0.09203850      -1.08487523       0.00000000
Si       0.88399315       1.07512372       1.97960206       0.00000000
Si      -0.38506302      -2.36444465       0.36000187       0.00000000
Si      -1.65848492       1.15645969      -1.36156871       0.00000000
Si      -2.40148811      -2.30027834       1.55763648       0.00000000
Si      -0.82350838       3.40465890      -1.29138205       0.00000000
Si       1.75555703      -1.30965085      -3.04464890       0.00000000
Si       2.84317518      -0.24461064       2.44842678       0.00000000
Si       3.63078039      -1.04677912       0.38554550       0.00000000
Si      -0.63135154       0.82710847       3.75433022       0.00000000
