10
Lattice="16.2900001489832 0.0 0.0 0.0 16.2900001489832 0.0 0.0 0.0 29.15939337494521" Properties=species:S:1:pos:R:3:initial_magmoms:R:1 pbc="T T T"
Si       1.42109237       0.67383586      -1.68984516       0.00000000
Si       1.17643123      -0.84510892       1.83030596       0.00000000
Si      -1.18618894      -1.78233779      -0.97783110       0.00000000
Si      -1.88310773       1.38201103       0.41257626       0.00000000
Si      -2.06319368       0.42388209       2.56430621       0.00000000
Si      -2.27639720      -0.42140601      -2.55319648       0.00000000
Si      -0.37110249       0.99518869      -3.35569215       0.00000000
Si       2.04896436       2.80043022      -0.93692047       0.00000000
Si      -0.51523641      -1.10848564       3.45900388       0.00000000
Si       0.56446480      -3.06967134      -2.07918139       0.00000000
