10
Lattice="16.2900001489832 0.0 0.0 0.0 16.2900001489832 0.0 0.0 0.0 29.15939337494521" Properties=species:S:1:pos:R:3:initial_magmoms:R:1 pbc="T T T"
Si       1.57967389       0.88581111      -1.52664004       0.00000000
Si      -1.38740302       1.42779571       1.28767881       0.00000000
Si       1.35307999      -1.30004627       1.45085478       0.00000000
Si      -1.54867402      -1.25254463      -1.30634082       0.00000000
Si       1.02727999      -0.58406167      -3.42716182       0.00000000
Si      -1.08750412      -3.47293681      -0.72983046       0.00000000
Si      -0.07969068      -2.59112652       2.78460543       0.00000000
Si       0.05255154       2.83538204       2.55745667       0.00000000
Si      -2.73052983       0.05239679       2.67667777       0.00000000
Si       0.63109090       2.84325011      -2.53415540       0.00000000
