10
Lattice="16.2900001489832 0.0 0.0 0.0 16.2900001489832 0.0 0.0 0.0 29.15939337494521" Properties=species:S:1:pos:R:3:initial_magmoms:R:1 pbc="T T T"
Si       1.32543586       1.36194175      -1.32972666       0.00000000
Si      -1.38284182       1.34996860       1.35252930       0.00000000
Si       1.28378233      -1.42006447       1.41697156       0.00000000
Si      -1.44200710      -1.33496551      -1.37853948       0.00000000
Si      -2.16158528      -0.50758011       2.56623073       0.00000000
Si      -0.52841502      -2.30966138       2.67123371       0.00000000
Si       2.63096534      -0.07745895      -2.63685478       0.00000000
Si       2.64347606       2.66365937       0.16658761       0.00000000
Si      -0.12111615       2.65681757      -2.69590256       0.00000000
Si       2.58610268      -2.85448044       0.09118142       0.00000000
