10
Lattice="16.2900001489832 0.0 0.0 0.0 16.2900001489832 0.0 0.0 0.0 29.15939337494521" Properties=species:S:1:pos:R:3:initial_magmoms:R:1 pbc="T T T"
Si      -1.06712533       0.74881873       1.96429338       0.00000000
Si      -1.78184909      -0.93801079      -1.24819699       0.00000000
Si       1.00597267       1.83519884      -1.13056800       0.00000000
Si       1.77795578      -1.65802880       0.09371829       0.00000000
H       -2.24018453       1.57666024       1.47636925       0.00000000
Si      -0.47952873      -2.37242675      -2.57398713       0.00000000
Si       2.27810765       0.53978544      -2.65513772       0.00000000
Si       3.56203659      -0.68773123      -1.13112203       0.00000000
Si       0.99254971      -3.56066823      -1.12380302       0.00000000
Si       2.27217809      -2.08878527       2.36109440       0.00000000
