10
Lattice="16.2900001489832 0.0 0.0 0.0 16.2900001489832 0.0 0.0 0.0 29.15939337494521" Properties=species:S:1:pos:R:3:initial_magmoms:R:1 pbc="T T T"
Si      -0.19155411       0.63706933       2.19329230       0.00000000
Si       0.61599007       1.99511777      -1.10251666       0.00000000
Si      -2.19139598      -0.52403301      -0.82716451       0.00000000
Si       1.73379359      -1.66948067      -0.20332845       0.00000000
Si      -1.41001028      -1.99187606      -2.45382127       0.00000000
Si       3.39794742      -0.33635592      -1.24746801       0.00000000
Si       0.50345874      -3.21610215      -1.62898951       0.00000000
Si      -0.91509076      -1.30712590       3.38619579       0.00000000
Si      -1.94869290       2.40891635       2.20547363       0.00000000
H        1.24626646       0.40335669      -3.61973046       0.00000000
