10
Lattice="16.2900001489832 0.0 0.0 0.0 16.2900001489832 0.0 0.0 0.0 29.15939337494521" Properties=species:S:1:pos:R:3:initial_magmoms:R:1 pbc="T T T"
Si      -0.28966878      -0.15670980       1.48258020       0.00000000
H       -1.51332472       0.02976183      -1.84188224       0.00000000
Si      -1.72840160       1.70808797      -1.62470308       0.00000000
Si       0.38138148      -2.39082419       1.83488399       0.00000000
Si       1.30671865       1.30769605       2.58095623       0.00000000
Si      -2.69014691       0.29719476       1.70188799       0.00000000
Si       0.34919244       2.78023062      -1.99214060       0.00000000
Si      -2.64854225       2.35861283       0.49361021       0.00000000
Si      -2.03939399      -1.42094413      -2.59075378       0.00000000
Si      -0.34937163      -2.94997242      -2.11708860       0.00000000
