10
Lattice="16.2900001489832 0.0 0.0 0.0 16.2900001489832 0.0 0.0 0.0 29.15939337494521" Properties=species:S:1:pos:R:3:initial_magmoms:R:1 pbc="T T T"
Si       1.35896068       1.40035357      -1.26541270       0.00000000
Si      -1.27374769       1.49425938       1.28837864       0.00000000
Si       1.39828474      -1.32564763       1.36524280       0.00000000
Si      -1.36922338      -1.32794452      -1.44098724       0.00000000
Si      -2.67926519       0.13196529       2.55130112       0.00000000
Si       2.75714769      -2.60291396      -0.09234780       0.00000000
Si       2.71277372       0.12544929      -2.68474617       0.00000000
Si      -2.74854657      -2.66286116      -0.09715910       0.00000000
Si       0.01604565      -2.65601936       2.76533107       0.00000000
Si       0.05348007       2.72957360      -2.71128997       0.00000000
