10
Lattice="16.2900001489832 0.0 0.0 0.0 16.2900001489832 0.0 0.0 0.0 29.15939337494521" Properties=species:S:1:pos:R:3:initial_magmoms:R:1 pbc="T T T"
Si       0.79807969       0.74386657      -2.12385358       0.00000000
Si       1.83776451       0.46204956       1.46368491       0.00000000
Si      -2.04889106       1.03224844       0.75000876       0.00000000
Si      -0.94521097      -2.12333962      -0.74764685       0.00000000
Si      -2.50095485      -1.10023964      -2.26813425       0.00000000
Si      -3.33224985       0.87459382      -1.22277000       0.00000000
Si       2.66546594      -0.74940354      -2.55759955       0.00000000
Si      -0.93911851       0.02283858      -3.68656379       0.00000000
Si       2.13582427       2.93322630       1.15616995       0.00000000
Si      -1.85715776      -3.24579882       1.15095042       0.00000000
