10
Lattice="16.2900001489832 0.0 0.0 0.0 16.2900001489832 0.0 0.0 0.0 29.15939337494521" Properties=species:S:1:pos:R:3:initial_magmoms:R:1 pbc="T T T"
Si      -1.42195411      -1.48840102      -1.02477772       0.00000000
Si       1.43620786      -1.04252743       1.48240524       0.00000000
Si      -1.28099674       2.02988063      -0.06382991       0.00000000
Si       1.55429407       0.72203797      -1.69477310       0.00000000
Si      -0.50401260       1.70531867      -2.37500343       0.00000000
Si       0.27481230      -3.25215192      -1.03110531       0.00000000
Si       2.36346725      -2.62668107      -0.07709744       0.00000000
Si      -2.98077681      -1.87507676       0.72679788       0.00000000
Si      -2.04608918      -0.20790927      -2.98134386       0.00000000
Si       3.33834231       1.39367467      -0.26963691       0.00000000
