10
Lattice="16.2900001489832 0.0 0.0 0.0 16.2900001489832 0.0 0.0 0.0 29.15939337494521" Properties=species:S:1:pos:R:3:initial_magmoms:R:1 pbc="T T T"
Si      -1.49768632      -1.32366025      -1.21218514       0.00000000
Si       1.40053276      -1.37155285       1.28449023       0.00000000
Si      -1.41488425       1.46202751       1.17454037       0.00000000
Si       1.63297477       0.85178782      -1.47698159       0.00000000
H        1.08335017       2.12631091      -2.05462918       0.00000000
Si       0.19440486      -2.29223108      -2.58139362       0.00000000
Si       2.59665860       0.19930815       2.57566671       0.00000000
Si      -0.10130751      -2.68320737       2.50345056       0.00000000
Si       1.94680163      -0.78941341      -3.12078408       0.00000000
Si      -0.06263505       2.80343246       2.54912292       0.00000000
