10
Lattice="16.2900001489832 0.0 0.0 0.0 16.2900001489832 0.0 0.0 0.0 29.15939337494521" Properties=species:S:1:pos:R:3:initial_magmoms:R:1 pbc="T T T"
Si       1.33436278       1.38320020      -1.35500785       0.00000000
Si      -1.35624025       1.38846187       1.36454297       0.00000000
Si       1.39148709      -1.43658253       1.28286751       0.00000000
Si      -1.39168729      -1.35062020      -1.37311583       0.00000000
Si      -2.30208653      -0.25892955       2.77851112       0.00000000
Si       2.82259602      -0.02301777       2.49321561       0.00000000
Si      -0.11023443       2.62984133      -2.72424549       0.00000000
Si      -2.82831870       2.57670335      -0.08564114       0.00000000
Si      -0.03453480      -2.75151786      -2.69771044       0.00000000
Si      -2.72054405      -2.74040157      -0.00644423       0.00000000
