10
Lattice="16.2900001489832 0.0 0.0 0.0 16.2900001489832 0.0 0.0 0.0 29.15939337494521" Properties=species:S:1:pos:R:3:initial_magmoms:R:1 pbc="T T T"
Si      -0.83497654      -2.24819921      -0.07018666       0.00000000
Si      -1.47989764       1.49369527      -1.18121787       0.00000000
Si       0.21918195       1.00067842       2.20363368       0.00000000
Si       2.12317346      -0.01133784      -1.25545768       0.00000000
Si       0.00431685       3.29968614       1.51730903       0.00000000
Si       0.82350838      -3.40465890       1.29138205       0.00000000
Si      -0.24531111       2.22754349      -3.02496631       0.00000000
Si      -3.07576380      -2.06739650       0.81290557       0.00000000
Si       2.32764554       0.03262887       3.00032662       0.00000000
Si      -3.14002785       0.28211022      -2.33432608       0.00000000
