10
Lattice="16.2900001489832 0.0 0.0 0.0 16.2900001489832 0.0 0.0 0.0 29.15939337494521" Properties=species:S:1:pos:R:3:initial_magmoms:R:1 pbc="T T T"
Si      -1.33478632      -1.37275831       1.35321455       0.00000000
Si      -1.35145099       1.38671884      -1.34122421       0.00000000
Si       1.37821546      -1.41040450      -1.30329950       0.00000000
Si       1.30629511       1.32835177       1.47142673       0.00000000
Si       0.17879904       2.56041335      -2.69180566       0.00000000
Si       2.64515393       2.69944850       0.15521837       0.00000000
Si      -2.69663033      -2.65903301      -0.07041119       0.00000000
Si       2.71546157      -2.64793952       0.16234492       0.00000000
Si      -2.72702747      -0.00868257       2.65798076       0.00000000
Si      -2.74603791       2.70049106       0.01602892       0.00000000
