10
Lattice="16.2900001489832 0.0 0.0 0.0 16.2900001489832 0.0 0.0 0.0 29.15939337494521" Properties=species:S:1:pos:R:3:initial_magmoms:R:1 pbc="T T T"
Si      -0.75258172       1.98071741      -0.99710546       0.00000000
Si       0.89536357      -1.07784089      -1.92892303       0.00000000
Si       1.03928572       0.25083342       2.13143502       0.00000000
Si      -2.08103123      -1.05056654       0.51897888       0.00000000
H        1.87594013       2.23394546      -0.27558543       0.00000000
Si       2.19147743      -1.72035596       1.90206723       0.00000000
Si      -2.26486388       0.79992046      -2.40270485       0.00000000
Si      -1.07773012       3.50116086       0.72644797       0.00000000
Si       2.69312798       0.45341586      -2.54888089       0.00000000
Si      -0.83898388      -0.63742282      -3.60777510       0.00000000
