10
Lattice="16.2900001489832 0.0 0.0 0.0 16.2900001489832 0.0 0.0 0.0 29.15939337494521" Properties=species:S:1:pos:R:3:initial_magmoms:R:1 pbc="T T T"
Si      -1.29173185       1.25999893       1.51751315       0.00000000
Si       1.32077692      -1.23632956       1.51943767       0.00000000
Si       1.37898109       1.60507000      -1.10484941       0.00000000
Si      -1.49582926      -1.30691413      -1.46222694       0.00000000
Si      -2.60534117       2.25158753      -0.07846793       0.00000000
Si      -0.20947311      -2.41002407       2.87001912       0.00000000
Si       2.83522566       0.31051998      -2.46242329       0.00000000
Si       2.53544078      -2.83822302       0.27508972       0.00000000
Si       2.48720609       0.22977045       2.95104725       0.00000000
Si      -2.97517305      -2.51975351      -0.02924687       0.00000000
