10
Lattice="16.2900001489832 0.0 0.0 0.0 16.2900001489832 0.0 0.0 0.0 29.15939337494521" Properties=species:S:1:pos:R:3:initial_magmoms:R:1 pbc="T T T"
Si      -1.16183539       1.70997761       1.14532265       0.00000000
Si       1.52226793      -1.11288394       1.44624759       0.00000000
Si       1.55882269       0.38667573      -1.75157560       0.00000000
Si      -1.86732272      -1.10108998      -0.98803689       0.00000000
H       -0.21372480       2.82797661       1.55795723       0.00000000
Si       2.98077681       1.87507676      -0.72679788       0.00000000
Si       2.44638335      -2.77446396       0.01898277       0.00000000
Si      -2.78759370       2.46935225      -0.40467406       0.00000000
Si       0.27945495      -2.34188300       2.94868534       0.00000000
Si      -0.98947090      -2.90750439      -2.26909651       0.00000000
