10
Lattice="16.2900001489832 0.0 0.0 0.0 16.2900001489832 0.0 0.0 0.0 29.15939337494521" Properties=species:S:1:pos:R:3:initial_magmoms:R:1 pbc="T T T"
Si       0.04160466       2.06141807      -1.20827778       0.00000000
Si      -0.60768217       0.46993392       2.28761273       0.00000000
Si      -1.79826941      -1.35240233      -0.95873169       0.00000000
Si       2.40047813      -0.45390456      -0.21930780       0.00000000
H       -2.76871359       1.18283320       0.16475057       0.00000000
H        2.69014691      -0.29719476      -1.70188799       0.00000000
Si      -3.51903099       0.31640067      -0.84486426       0.00000000
Si       0.96174532       1.41089320      -3.32659107       0.00000000
H        1.17682219      -0.26743293      -3.54377024       0.00000000
Si       1.27193950       3.60803955       0.21738328       0.00000000
