10
Lattice="16.2900001489832 0.0 0.0 0.0 16.2900001489832 0.0 0.0 0.0 29.15939337494521" Properties=species:S:1:pos:R:3:initial_magmoms:R:1 pbc="T T T"
Si       0.66368719      -0.17642233      -2.25311717       0.00000000
Si       2.13526064       0.52180780       1.01655477       0.00000000
Si      -1.01380653      -2.14831870       0.52271129       0.00000000
Si      -1.81824909       1.61514374       0.13882787       0.00000000
H        1.37375200       2.88737646       0.63538318       0.00000000
Si       0.74583766      -2.50088318      -2.43116442       0.00000000
Si      -2.19353812       1.78203479       2.45134272       0.00000000
Si       1.48243888       1.71571820       2.98388072       0.00000000
Si      -1.45719753      -3.00505868      -1.72623609       0.00000000
Si       2.74471842       0.87414421      -2.77209605       0.00000000
