10
Lattice="16.2900001489832 0.0 0.0 0.0 16.2900001489832 0.0 0.0 0.0 29.15939337494521" Properties=species:S:1:pos:R:3:initial_magmoms:R:1 pbc="T T T"
Si      -1.44459721       1.24664113      -1.36923763       0.00000000
Si      -1.33436278      -1.38320020       1.35500785       0.00000000
Si       1.34993928      -1.31240386      -1.42965590       0.00000000
Si       1.27475930       1.46693080       1.35955672       0.00000000
Si       2.72965016       0.06300972       2.55512100       0.00000000
Si      -0.10573839       2.61773786      -2.68544600       0.00000000
Si      -0.03543075      -2.72965016      -2.67831944       0.00000000
Si      -2.69060303       0.00526167       2.71955082       0.00000000
Si      -2.79806817       2.63314820      -0.03210449       0.00000000
Si       2.69708645       2.76071520      -0.01647506       0.00000000
