10
Lattice="16.2900001489832 0.0 0.0 0.0 16.2900001489832 0.0 0.0 0.0 29.15939337494521" Properties=species:S:1:pos:R:3:initial_magmoms:R:1 pbc="T T T"
H        0.28522161      -0.29053215       1.45773639       0.00000000
Si      -0.88239673      -1.84966436      -1.04457695       0.00000000
Si       2.09650673       0.36541728      -0.96680885       0.00000000
Si      -2.01714185       1.26237727      -0.07313176       0.00000000
H       -2.24564168      -1.32027193      -1.43338830       0.00000000
Si      -1.09871164      -3.35246574       0.73271724       0.00000000
Si       2.94785472       2.03468618       0.41184727       0.00000000
Si       1.60228441       0.79617376      -3.23418496       0.00000000
Si      -1.24279669       3.20302128      -1.36360987       0.00000000
Si      -2.56324781       1.84054196       2.14213652       0.00000000
