10
Lattice="16.2900001489832 0.0 0.0 0.0 16.2900001489832 0.0 0.0 0.0 29.15939337494521" Properties=species:S:1:pos:R:3:initial_magmoms:R:1 pbc="T T T"
H       -0.40467618       1.22647411      -0.78173418       0.00000000
Si       1.38645820      -0.90328051      -1.65389163       0.00000000
Si       1.32566392       0.98587081       1.68894122       0.00000000
Si      -2.07759404      -1.07214265       0.36743752       0.00000000
H       -1.86251717      -2.75046879       0.15025835       0.00000000
H       -0.34919244      -2.78023062       1.99214060       0.00000000
Si       2.65155590       2.24360543       0.19831303       0.00000000
Si       2.89321806       0.97086772      -1.87040013       0.00000000
H       -1.35277048       2.46304802      -2.49409039       0.00000000
Si       0.82852570       3.65821275      -0.32515640       0.00000000
