10
Lattice="16.2900001489832 0.0 0.0 0.0 16.2900001489832 0.0 0.0 0.0 29.15939337494521" Properties=species:S:1:pos:R:3:initial_magmoms:R:1 pbc="T T T"
Si       0.86504788       1.25030475       1.80207967       0.00000000
Si      -2.16015176       0.62286282      -0.72828501       0.00000000
Si       1.73011205       0.22243018      -1.60452478       0.00000000
Si      -0.75267946      -2.11198386       0.78858663       0.00000000
Si      -1.15137721       1.31447106       2.99971427       0.00000000
Si       0.34243209       0.67712481      -3.44594047       0.00000000
Si      -3.00752499       1.09857969       1.49815131       0.00000000
Si      -1.53430624       1.92387997      -2.62000065       0.00000000
Si       2.70624143      -0.32774503       2.34715621       0.00000000
Si      -3.25356915      -1.37820080      -1.46511372       0.00000000
