10
Lattice="16.2900001489832 0.0 0.0 0.0 16.2900001489832 0.0 0.0 0.0 29.15939337494521" Properties=species:S:1:pos:R:3:initial_magmoms:R:1 pbc="T T T"
Si      -1.22688136       1.29854107      -1.51276017       0.00000000
Si      -1.59501907      -1.15986430       1.37139543       0.00000000
Si       1.93834712      -0.97428862      -1.06892504       0.00000000
Si       1.21241584       1.61186293       1.34136125       0.00000000
Si      -0.08014680      -2.38974302       2.75290917       0.00000000
Si       3.60859341       0.77338405      -0.83929482       0.00000000
Si      -2.65579130       2.77079871      -0.33442908       0.00000000
Si       2.77604409       0.43207596       2.68662987       0.00000000
Si       2.69175962       2.82470232      -0.09161881       0.00000000
Si       0.09901062       2.55627569      -3.00338836       0.00000000
