10
Lattice="16.2900001489832 0.0 0.0 0.0 16.2900001489832 0.0 0.0 0.0 29.15939337494521" Properties=species:S:1:pos:R:3:initial_magmoms:R:1 pbc="T T T"
Si      -1.06817441      -1.60516774      -1.38311751       0.00000000
Si      -1.99540936       1.22258080       0.41420918       0.00000000
Si       1.77810239       0.86490127      -1.41099389       0.00000000
Si       0.96259240      -0.85180411       2.09440259       0.00000000
H        2.57199554      -1.43249374       0.23718251       0.00000000
Si       2.44854992      -1.38960217      -1.28843696       0.00000000
Si       0.77336776      -3.04282542      -1.77198718       0.00000000
Si      -1.36753737       3.34917516       1.16713388       0.00000000
Si      -2.85203694      -2.52092639       0.02487296       0.00000000
Si       1.88367788       1.13135680       3.10839133       0.00000000
