10
Lattice="16.2900001489832 0.0 0.0 0.0 16.2900001489832 0.0 0.0 0.0 29.15939337494521" Properties=species:S:1:pos:R:3:initial_magmoms:R:1 pbc="T T T"
Si      -0.21056454       2.02885436      -1.15147529       0.00000000
Si       2.05830668      -0.98328070       0.68023033       0.00000000
Si      -0.77698414       0.32456196       2.31117352       0.00000000
Si      -1.54207657      -1.91322794      -0.60634043       0.00000000
H       -0.06121782      -0.93480166      -2.80726228       0.00000000
Si       0.50401260      -1.70531867       2.37500343       0.00000000
Si      -3.39828951      -0.33076845      -0.86749195       0.00000000
Si      -0.03603348       3.48989470       0.70466590       0.00000000
Si      -2.46635489       1.71523928      -1.95607043       0.00000000
Si      -0.91794151      -3.19371969       1.35022571       0.00000000
