10
Lattice="16.2900001489832 0.0 0.0 0.0 16.2900001489832 0.0 0.0 0.0 29.15939337494521" Properties=species:S:1:pos:R:3:initial_magmoms:R:1 pbc="T T T"
Si       1.29106396       1.37179232      -1.41290966       0.00000000
Si      -1.31738860       1.34792747       1.45412063       0.00000000
Si       1.40585959      -1.32395836       1.39562689       0.00000000
Si      -1.35824392      -1.32477286      -1.44774930       0.00000000
Si      -2.63729564      -2.63307164       0.08879035       0.00000000
Si       2.74699902      -0.06495475      -2.63196475       0.00000000
Si       2.73509103       2.67284205       0.00043739       0.00000000
Si      -2.80664811       0.18940383      -2.60451118       0.00000000
Si       2.68587893      -2.76361970       0.03808217       0.00000000
Si       0.12820230      -2.63637851       2.85814542       0.00000000
