10
Lattice="16.2900001489832 0.0 0.0 0.0 16.2900001489832 0.0 0.0 0.0 29.15939337494521" Properties=species:S:1:pos:R:3:initial_magmoms:R:1 pbc="T T T"
Si      -1.52278921       1.27327528      -1.26569263       0.00000000
Si       1.19301445      -1.41837031      -1.48847039       0.00000000
Si      -1.19918836      -1.51454647       1.40574520       0.00000000
Si       1.26605881       1.63067788       1.35357904       0.00000000
H        1.42933348      -1.26131842       2.12726522       0.00000000
Si      -1.52433676       0.00589698       3.12929862       0.00000000
Si       2.80386741      -1.45717309       1.50707409       0.00000000
Si      -2.50761746       2.52353279       0.50958956       0.00000000
Si       3.43688052       0.88296688       0.86997050       0.00000000
Si      -0.12577509       2.58294242      -2.65860769       0.00000000
