10
Lattice="16.2900001489832 0.0 0.0 0.0 16.2900001489832 0.0 0.0 0.0 29.15939337494521" Properties=species:S:1:pos:R:3:initial_magmoms:R:1 pbc="T T T"
Si      -1.44753642       1.35449722      -1.24931380       0.00000000
Si       1.36301640       1.40154274       1.29613795       0.00000000
Si       1.36711171      -1.38846187      -1.34285422       0.00000000
Si      -1.40316246      -1.37386603       1.34308457       0.00000000
Si      -2.64366226      -0.21636378      -2.54049028       0.00000000
Si       2.64206812       2.70984152      -0.24040170       0.00000000
Si      -0.03781609      -2.73237059       2.67050764       0.00000000
Si       2.69734009       0.06341697       2.71698771       0.00000000
Si       2.72941510      -2.69897609       0.02999335       0.00000000
Si      -2.80134946       2.62940150       0.17001967       0.00000000
