10
Lattice="16.2900001489832 0.0 0.0 0.0 16.2900001489832 0.0 0.0 0.0 29.15939337494521" Properties=species:S:1:pos:R:3:initial_magmoms:R:1 pbc="T T T"
Si       1.27765729       1.31242015      -1.46251853       0.00000000
Si      -1.26281710       1.32319376       1.47184954       0.00000000
Si       1.20971170      -1.43961247       1.43012245       0.00000000
Si      -1.43117425      -1.33481890      -1.34850531       0.00000000
Si      -0.66852532      -2.16977915       2.77842364       0.00000000
Si      -2.40523481      -0.35740260       2.67132119       0.00000000
Si       2.61534323       2.63830562      -0.01055570       0.00000000
Si      -2.69960000       2.62709973       0.07100312       0.00000000
Si       2.50238837      -2.85747780       0.01125553       0.00000000
Si       2.55767663      -0.12724119      -2.82006325       0.00000000
