10
Lattice="16.2900001489832 0.0 0.0 0.0 16.2900001489832 0.0 0.0 0.0 29.15939337494521" Properties=species:S:1:pos:R:3:initial_magmoms:R:1 pbc="T T T"
Si      -0.65282176       1.19391040       1.96732595       0.00000000
Si       1.64874350       0.60316984      -1.65721580       0.00000000
Si      -2.13526064      -0.52180780      -1.01655477       0.00000000
Si       1.21612996      -1.93297142       0.84780936       0.00000000
H       -0.76150864       2.36556866      -0.38117159       0.00000000
H        2.33088725       1.38103363       1.67191214       0.00000000
Si      -1.50314347      -0.72504184       3.08602608       0.00000000
Si      -0.50503887      -2.79222006       2.21736775       0.00000000
Si       1.37951866       2.34896915       2.35677881       0.00000000
Si       2.80093521      -1.36801955      -1.88658359       0.00000000
