10
Lattice="16.28999089631971 0.0 0.0 0.0 16.28999089631971 0.0 0.0 0.0 34.49183129400761" Properties=species:S:1:pos:R:3:initial_magmoms:R:1 pbc="T T T"
Si      -1.35340578       1.74551652       0.57449626       0.00000000
Si       0.72720189      -0.28421163      -2.20923752       0.00000000
Si       1.30295565      -0.06675642       1.96048229       0.00000000
Si      -1.51638723      -1.81299555      -0.02521354       0.00000000
Si       0.26513604      -3.34324557      -0.33839955       0.00000000
Si      -0.51929262      -0.31780161       3.46981118       0.00000000
Si      -2.44195408       0.81678127       2.42239716       0.00000000
Si       0.50666787      -2.61843831      -2.53394380       0.00000000
Si      -0.06123411       3.65716106       0.55090384       0.00000000
Si      -3.17297288       1.69772004      -0.89289054       0.00000000
