10
Lattice="16.28999089631971 0.0 0.0 0.0 16.28999089631971 0.0 0.0 0.0 34.49183129400761" Properties=species:S:1:pos:R:3:initial_magmoms:R:1 pbc="T T T"
Si       1.82224827       0.25104519      -1.50932889       0.00000000
Si       0.14312394      -2.08624401       1.17475794       0.00000000
Si      -1.92266146       1.13458288      -1.04741403       0.00000000
Si       1.28210445       1.32291646       2.14042628       0.00000000
Si       0.51929262       0.31780161      -3.46981118       0.00000000
Si      -0.83411316       2.06331813      -2.89531492       0.00000000
Si      -1.23276204      -3.56583213      -0.22671493       0.00000000
Si       3.12293961       2.10346158      -0.75312956       0.00000000
Si      -0.99709461      -1.49519394      -3.49502473       0.00000000
Si      -2.70807308       2.92253093       0.30163123       0.00000000
