10
Lattice="16.28999089631971 0.0 0.0 0.0 16.28999089631971 0.0 0.0 0.0 34.49183129400761" Properties=species:S:1:pos:R:3:initial_magmoms:R:1 pbc="T T T"
Si      -2.18891988      -0.45352989       0.74471355       0.00000000
Si       0.25058907      -1.30365612      -1.97162316       0.00000000
Si       1.48242258      -1.15132833       1.45824646       0.00000000
Si       0.80697402       2.30949846      -0.33601961       0.00000000
Si       3.27578868      -0.94289778      -0.08660904       0.00000000
Si       2.49816924      -0.86424966      -2.29308721       0.00000000
Si      -3.48226606       0.50153652      -0.99305487       0.00000000
Si      -1.05445170       3.51587070       0.46491565       0.00000000
Si       2.44788201       2.59556715       1.32569428       0.00000000
Si       0.88682760       2.15748018       3.04749297       0.00000000
