10
Lattice="16.28999089631971 0.0 0.0 0.0 16.28999089631971 0.0 0.0 0.0 34.49183129400761" Properties=species:S:1:pos:R:3:initial_magmoms:R:1 pbc="T T T"
Si       1.35413883      -1.35259128      -1.35680593       0.00000000
Si      -1.35760860      -1.34526078       1.36753289       0.00000000
Si      -1.35738054       1.36277253      -1.35528828       0.00000000
Si       1.37595114       1.35479043       1.38215744       0.00000000
Si      -0.09572004       2.54896146       2.80301473       0.00000000
Si       2.71006956      -2.71129131       0.00500132       0.00000000
Si      -0.00226431      -2.71086777      -2.71374982       0.00000000
Si       2.71236645       0.00373041      -2.71343939       0.00000000
Si      -2.71837746      -2.70855459       0.00237994       0.00000000
Si       2.71187775       2.71862181       0.00344919       0.00000000
