10
Lattice="16.28999089631971 0.0 0.0 0.0 16.28999089631971 0.0 0.0 0.0 34.49183129400761" Properties=species:S:1:pos:R:3:initial_magmoms:R:1 pbc="T T T"
Si       0.85934637      -1.91475918      -1.10249751       0.00000000
Si      -1.29420792      -0.88052337       1.80851120       0.00000000
Si       2.20885884       0.79939917       0.56038910       0.00000000
Si      -0.95951358       1.95778107      -1.11049962       0.00000000
Si       0.34670007      -0.59445468       3.47022509       0.00000000
Si       1.59685983       2.70933651       1.72135029       0.00000000
Si      -0.27688113       3.58976214       0.50154600       0.00000000
Si       3.07802808       1.68246378      -1.48773699       0.00000000
Si       1.25255439       3.02590008      -2.29743318       0.00000000
Si      -2.74911669      -1.34179101      -2.64090303       0.00000000
