10
Lattice="16.28999089631971 0.0 0.0 0.0 16.28999089631971 0.0 0.0 0.0 34.49183129400761" Properties=species:S:1:pos:R:3:initial_magmoms:R:1 pbc="T T T"
Si      -1.58641794      -1.21961601       1.30993150       0.00000000
Si       1.19250945      -1.49336946      -1.49653241       0.00000000
Si      -1.49726277       1.21199229      -1.49718776       0.00000000
Si       1.82149893       1.10863224       1.55085708       0.00000000
Si       2.75819022       2.60663362      -0.09533547       0.00000000
Si       2.55671550      -0.14991687      -2.87299869       0.00000000
Si       2.56099977      -2.87094960      -0.13951954       0.00000000
Si      -0.16042392       2.56698101      -2.87141207       0.00000000
Si      -2.72942208      -2.72569167      -0.16921702       0.00000000
Si      -2.87922492       2.60472476      -0.15797268       0.00000000
