10
Lattice="16.28999089631971 0.0 0.0 0.0 16.28999089631971 0.0 0.0 0.0 34.49183129400761" Properties=species:S:1:pos:R:3:initial_magmoms:R:1 pbc="T T T"
Si      -0.28759360       1.19010668       2.00097573       0.00000000
Si       2.17637332       0.35678032      -0.82114749       0.00000000
Si       0.04698362      -2.22384631       0.81642210       0.00000000
Si      -1.67890671       1.10979372      -1.25653812       0.00000000
Si       3.61258117      -0.79182499       0.68462874       0.00000000
Si       2.56239745       2.67560644      -0.82597635       0.00000000
Si       2.31853615      -0.69586060      -2.92739234       0.00000000
Si       1.32429229      -3.57925576      -0.63820271       0.00000000
Si      -0.26352757       3.51907006       1.74038980       0.00000000
Si       1.36899205      -2.32060891       2.86865272       0.00000000
