10
Lattice="16.28999089631971 0.0 0.0 0.0 16.28999089631971 0.0 0.0 0.0 34.49183129400761" Properties=species:S:1:pos:R:3:initial_magmoms:R:1 pbc="T T T"
Si      -1.84409316       0.62042094       1.22808234       0.00000000
Si      -0.54900558      -2.10975048      -1.00640322       0.00000000
Si       0.61628328       2.07407538      -1.04824183       0.00000000
Si       1.92912696      -0.03741813       1.44758848       0.00000000
Si       2.56906332       1.15510761      -1.93154363       0.00000000
Si       0.57883257       3.41441658       0.91013646       0.00000000
Si       3.65801724      -0.03280806      -0.15269542       0.00000000
Si      -1.62355914       2.95464762       1.55278862       0.00000000
Si       1.33947783      -2.63459799      -2.34551482       0.00000000
Si       1.61740152      -0.50117814      -3.40406972       0.00000000
