10
Lattice="16.28999089631971 0.0 0.0 0.0 16.28999089631971 0.0 0.0 0.0 34.49183129400761" Properties=species:S:1:pos:R:3:initial_magmoms:R:1 pbc="T T T"
Si      -2.06140176       0.22693599      -1.18041460       0.00000000
Si      -0.38926584      -1.43602866       1.86883745       0.00000000
Si       1.53648909      -1.23212673      -1.35670245       0.00000000
Si       0.79527780       2.06076645       0.96497850       0.00000000
Si       3.19987728      -1.64138040       0.37051146       0.00000000
Si       1.51078347       1.23582456       3.07287897       0.00000000
Si      -2.64044610      -2.03014125       1.48156295       0.00000000
Si      -3.15195210      -1.77655482      -0.81804322       0.00000000
Si       1.95335019       0.29390418      -3.15645272       0.00000000
Si      -1.02358215       3.50342514       1.11846724       0.00000000
