10
Lattice="16.28999089631971 0.0 0.0 0.0 16.28999089631971 0.0 0.0 0.0 34.49183129400761" Properties=species:S:1:pos:R:3:initial_magmoms:R:1 pbc="T T T"
Si       1.40090742      -1.33513801       1.27313215       0.00000000
Si      -1.35785295       1.38495951       1.29572776       0.00000000
Si      -1.14650649      -1.42403012      -1.49466782       0.00000000
Si       0.77540400       1.94660613      -1.11826719       0.00000000
Si      -1.79686845       0.23153303      -2.99647749       0.00000000
Si       0.39912129       1.40458896      -3.33722248       0.00000000
Si      -2.60113833      -2.60371934      -0.05960537       0.00000000
Si       0.01923849      -2.67979364       2.63688473       0.00000000
Si      -2.69703756       0.03849164       2.64309326       0.00000000
Si       2.73298959       0.03877020       2.63598794       0.00000000
