10
Lattice="16.28999089631971 0.0 0.0 0.0 16.28999089631971 0.0 0.0 0.0 34.49183129400761" Properties=species:S:1:pos:R:3:initial_magmoms:R:1 pbc="T T T"
Si      -1.35593073       1.35870003      -1.36180724       0.00000000
Si       1.35930276      -1.35839866      -1.36132436       0.00000000
Si       1.36632375       1.34798121       1.36925748       0.00000000
Si      -1.35338949      -1.35679899       1.38677934       0.00000000
Si      -2.71006956       2.71129131      -0.00500132       0.00000000
Si      -2.71489140      -2.71426046      -0.00141417       0.00000000
Si      -2.71233387       0.00042354      -2.71875114       0.00000000
Si       2.71513575       2.71629234      -0.00144866       0.00000000
Si       2.71767699      -2.71577825      -0.00434597       0.00000000
Si       0.00229689       2.71502172      -2.71844071       0.00000000
