10
Lattice="16.28999089631971 0.0 0.0 0.0 16.28999089631971 0.0 0.0 0.0 34.49183129400761" Properties=species:S:1:pos:R:3:initial_magmoms:R:1 pbc="T T T"
Si       1.08854830       0.92873525      -1.84790089       0.00000000
Si      -0.78541162       1.78794805       1.34904526       0.00000000
Si      -1.93180408      -0.11467183      -1.52433284       0.00000000
Si       1.92266146      -1.13458288       1.04741403       0.00000000
Si      -0.73101880       0.88093876      -3.31528769       0.00000000
Si       2.44195408      -0.81678127      -2.42239716       0.00000000
Si      -2.50358308      -2.34414796      -1.01350854       0.00000000
Si      -3.09113080       1.27598593       1.41533860       0.00000000
Si       0.92556685      -2.62977682      -2.44761070       0.00000000
Si       3.74490973      -0.88353769      -0.46191486       0.00000000
