10
Lattice="16.28999089631971 0.0 0.0 0.0 16.28999089631971 0.0 0.0 0.0 34.49183129400761" Properties=species:S:1:pos:R:3:initial_magmoms:R:1 pbc="T T T"
Si      -1.58060241       0.14832045       1.71310674       0.00000000
Si      -1.18895823       0.98192862      -1.85717920       0.00000000
Si       0.83222352      -2.25631813       0.24941057       0.00000000
Si       2.31902811       0.89782335      -0.09230019       0.00000000
Si       2.54881485      -1.32444216      -1.12364102       0.00000000
Si       1.29249747       2.93839020      -1.00285056       0.00000000
Si      -1.36347300      -1.94047132       2.75541597       0.00000000
Si      -2.10766536      -0.94161087      -2.82933201       0.00000000
Si       0.94232763      -2.43455190       2.64590435       0.00000000
Si       2.82571227       0.86835474       2.30546978       0.00000000
