10
Lattice="16.28999089631971 0.0 0.0 0.0 16.28999089631971 0.0 0.0 0.0 34.49183129400761" Properties=species:S:1:pos:R:3:initial_magmoms:R:1 pbc="T T T"
Si      -1.36049193      -1.48801072      -1.18017316       0.00000000
Si       1.71659133       0.93187597      -1.37305159       0.00000000
Si       0.11010411      -0.17823378       2.39649378       0.00000000
Si      -0.83222352       2.25631813      -0.24941057       0.00000000
Si      -2.19569652       0.31584681       2.50600540       0.00000000
Si       1.48680459       3.15414148      -0.34171076       0.00000000
Si      -1.39100310      -0.42844329      -3.25554781       0.00000000
Si       0.54211491       0.89338270      -3.48450471       0.00000000
Si      -2.41282593       2.40463858       1.46369617       0.00000000
Si       2.10727440       0.89439268       3.01662276       0.00000000
