10
Lattice="16.28999089631971 0.0 0.0 0.0 16.28999089631971 0.0 0.0 0.0 34.49183129400761" Properties=species:S:1:pos:R:3:initial_magmoms:R:1 pbc="T T T"
Si       1.17779958      -1.35159759      -1.53447345       0.00000000
Si      -1.84494024      -0.78757263       1.29082302       0.00000000
Si      -1.52264259       1.36650294      -1.52657481       0.00000000
Si       2.02235463       0.81145377       1.48001082       0.00000000
Si       2.68820838      -2.55989205      -0.12085944       0.00000000
Si       2.53951326       2.72359026      -0.04746079       0.00000000
Si       2.52661158       0.01671354      -2.90517959       0.00000000
Si      -2.92840443      -2.59584408      -0.06370645       0.00000000
Si      -2.99431377       2.56067397      -0.10571752       0.00000000
Si      -0.18852417      -2.69957880      -2.90373093       0.00000000
