10
Lattice="16.28999089631971 0.0 0.0 0.0 16.28999089631971 0.0 0.0 0.0 34.49183129400761" Properties=species:S:1:pos:R:3:initial_magmoms:R:1 pbc="T T T"
Si       1.34623818      -1.32540327      -1.49884337       0.00000000
Si      -1.37101527       1.34845362      -1.49115168       0.00000000
Si       0.77887377       2.01611556       1.21311288       0.00000000
Si      -0.51715863      -1.91213649       1.52747160       0.00000000
Si      -2.53951326      -2.72359026       0.04746079       0.00000000
Si       2.78094735      -2.55205656      -0.14179600       0.00000000
Si       2.66422950       2.75266791      -0.05649765       0.00000000
Si      -2.72150514       2.71463076      -0.12579178       0.00000000
Si       2.70117522       0.00775404      -2.85975382       0.00000000
Si      -0.01290168      -2.70687672      -2.85771880       0.00000000
