10
Lattice="16.28999089631971 0.0 0.0 0.0 16.28999089631971 0.0 0.0 0.0 34.49183129400761" Properties=species:S:1:pos:R:3:initial_magmoms:R:1 pbc="T T T"
Si      -0.60071004       1.84977837       1.38677934       0.00000000
Si       2.36622024       0.49264218       0.05656663       0.00000000
Si      -0.49834368      -0.13773195      -2.41684397       0.00000000
Si      -0.47055294      -2.05175808       1.37456923       0.00000000
Si       1.28163204      -1.88532315      -2.66897940       0.00000000
Si       3.09516516      -1.87383870      -0.99281343       0.00000000
Si      -2.81939175      -1.74744459       1.77201882       0.00000000
Si      -1.46987928       0.96671376       3.43490543       0.00000000
Si      -2.42618373       3.19321467       0.57708315       0.00000000
Si       1.11408939       3.54470400       1.62028917       0.00000000
