10
Lattice="16.28999089631971 0.0 0.0 0.0 16.28999089631971 0.0 0.0 0.0 34.49183129400761" Properties=species:S:1:pos:R:3:initial_magmoms:R:1 pbc="T T T"
Si       1.35048987      -1.36617714      -1.36535990       0.00000000
Si      -1.36849032       1.37758014      -1.35701288       0.00000000
Si       1.79418060       0.97318089       1.20421398       0.00000000
Si      -1.12207149      -1.73284875       1.16413445       0.00000000
Si       2.66621688       2.65175136      -0.11996266       0.00000000
Si       3.50037891      -0.69851520       1.33890466       0.00000000
Si       2.72150514      -2.71463076       0.12579178       0.00000000
Si      -0.00472410      -2.70788670      -2.73203050       0.00000000
Si      -2.56099977       2.87094960       0.13951954       0.00000000
Si      -2.71562445       0.00301365      -2.73182355       0.00000000
