10
Lattice="16.28999089631971 0.0 0.0 0.0 16.28999089631971 0.0 0.0 0.0 34.49183129400761" Properties=species:S:1:pos:R:3:initial_magmoms:R:1 pbc="T T T"
Si      -1.76391378       0.09865224      -1.56517120       0.00000000
Si       1.24313877      -1.86069267      -0.76640892       0.00000000
Si      -0.39307770      -0.80834238       2.19040497       0.00000000
Si       0.83997756       2.23826229      -0.01521091       0.00000000
Si       1.90881333      -0.74212353       2.72264872       0.00000000
Si      -3.54864618       0.48509991      -0.06919065       0.00000000
Si       2.89487961      -1.98360072       0.92927944       0.00000000
Si      -2.59698438       2.14138566       1.40333543       0.00000000
Si      -1.50803046       0.95346999       3.18218364       0.00000000
Si      -2.29713435      -2.21218200      -1.80961494       0.00000000
