10
Lattice="16.28999089631971 0.0 0.0 0.0 16.28999089631971 0.0 0.0 0.0 34.49183129400761" Properties=species:S:1:pos:R:3:initial_magmoms:R:1 pbc="T T T"
Si      -1.34490240       1.32923142       1.42013296       0.00000000
Si       1.25693640      -1.62228852       1.23598097       0.00000000
Si       1.78417854       1.70745264      -0.36861441       0.00000000
Si      -1.59534486      -1.37758014      -1.77805490       0.00000000
Si      -1.70041536       2.88243405      -0.45663761       0.00000000
Si       0.46869588       2.67654474      -2.03460528       0.00000000
Si       1.45186254      -2.97997857      -0.81749135       0.00000000
Si       0.35986239      -2.15713809      -2.85896051       0.00000000
Si      -0.00008145       2.48604948       2.96071634       0.00000000
Si      -2.72766276      -0.08389350       2.81731302       0.00000000
