10
Lattice="16.28999089631971 0.0 0.0 0.0 16.28999089631971 0.0 0.0 0.0 34.49183129400761" Properties=species:S:1:pos:R:3:initial_magmoms:R:1 pbc="T T T"
Si      -1.15805610       1.40006590       1.43668905       0.00000000
Si       1.31097033      -1.42576596       1.27254233       0.00000000
Si      -1.35953082      -1.35648459      -1.34097417       0.00000000
Si       1.35589815       1.35889551      -1.34231935       0.00000000
Si      -2.09474739      -0.09793548       3.08288160       0.00000000
Si       0.00019548      -2.71220355      -2.69898731       0.00000000
Si       2.71422351       0.00213399      -2.69971164       0.00000000
Si      -2.71653669       0.00265527      -2.69867688       0.00000000
Si      -0.00247608       2.71627509      -2.69929773       0.00000000
Si      -2.72373687      -2.69993718       0.03549211       0.00000000
