10
Lattice="16.28999089631971 0.0 0.0 0.0 16.28999089631971 0.0 0.0 0.0 34.49183129400761" Properties=species:S:1:pos:R:3:initial_magmoms:R:1 pbc="T T T"
Si      -1.35780571      -1.35231435       1.39055965       0.00000000
Si       1.35669636       1.36280511       1.39024922       0.00000000
Si      -1.29438874       1.37008674      -1.53663954       0.00000000
Si       1.24807464      -1.52355483      -1.48273912       0.00000000
Si      -2.71307411       2.70632286       0.00540142       0.00000000
Si       2.70528030       2.72442105       0.01365877       0.00000000
Si      -2.72563370      -2.70948312       0.00895408       0.00000000
Si       2.71668330      -2.71930599       0.00200398       0.00000000
Si       0.00060273      -2.70976005       2.75367759       0.00000000
Si       2.71404432       0.00487071       2.75267732       0.00000000
