10
Lattice="16.28999089631971 0.0 0.0 0.0 16.28999089631971 0.0 0.0 0.0 34.49183129400761" Properties=species:S:1:pos:R:3:initial_magmoms:R:1 pbc="T T T"
Si       1.38254859       1.38886911       1.27364607       0.00000000
Si      -1.72942785       1.41263622      -0.77844658       0.00000000
Si       1.24271523      -0.82723878      -1.85938668       0.00000000
Si      -0.95087988      -1.61013618       1.50070593       0.00000000
Si       0.98135847      -3.00337101      -1.11322448       0.00000000
Si       1.59229863       3.06609958      -0.40672790       0.00000000
Si      -1.07300601      -3.34637325      -0.11827256       0.00000000
Si      -3.47760549       0.35577360       0.47619449       0.00000000
Si      -0.71350200       3.56018017      -0.29721628       0.00000000
Si      -0.38046924       2.00803572       3.04600982       0.00000000
