10
Lattice="16.28999089631971 0.0 0.0 0.0 16.28999089631971 0.0 0.0 0.0 34.49183129400761" Properties=species:S:1:pos:R:3:initial_magmoms:R:1 pbc="T T T"
Si       1.33661079      -1.34716410       1.39098735       0.00000000
Si       1.35904212       1.35085965      -1.36670509       0.00000000
Si      -1.35633798      -1.36413667      -1.36994732       0.00000000
Si      -1.19728242       1.49132832       1.41727014       0.00000000
Si      -2.44656252       0.00578132       2.73237542       0.00000000
Si       2.39850702       0.25421685       2.85651159       0.00000000
Si      -2.70769122       2.69962278       0.00365614       0.00000000
Si       2.71806795       2.71514715       0.00169010       0.00000000
Si       0.00174303       2.70858228      -2.72633934       0.00000000
Si      -2.71223613      -2.72303218      -0.02762797       0.00000000
