10
Lattice="16.28999089631971 0.0 0.0 0.0 16.28999089631971 0.0 0.0 0.0 34.49183129400761" Properties=species:S:1:pos:R:3:initial_magmoms:R:1 pbc="T T T"
Si      -1.65234357       1.12461925      -1.34973510       0.00000000
Si       1.16798715      -1.65472258      -1.44355293       0.00000000
Si      -0.30955887      -0.89270896       2.35272362       0.00000000
Si       0.65668967       2.24626720       1.02313176       0.00000000
Si      -2.26685124       0.39108217       2.47713572       0.00000000
Si       1.78752518      -0.00818084       2.94819093       0.00000000
Si      -0.03968244       2.18550550      -2.77600761       0.00000000
Si       3.19695227      -0.95431774       1.25746940       0.00000000
Si      -1.54145754       2.58622321       2.02242966       0.00000000
Si       2.48631731      -2.89330015       0.02331649       0.00000000
