10
Lattice="16.28999089631971 0.0 0.0 0.0 16.28999089631971 0.0 0.0 0.0 34.49183129400761" Properties=species:S:1:pos:R:3:initial_magmoms:R:1 pbc="T T T"
Si      -1.36309833       0.92543490       1.60435394       0.00000000
Si       2.30571918       0.51196212      -0.06629334       0.00000000
Si      -0.56801601       0.18077013      -2.29353560       0.00000000
Si       1.15932672      -1.39065775      -2.93967144       0.00000000
Si      -1.73180619       2.95324668       0.51492884       0.00000000
Si       3.09113080      -1.27598593      -1.41533860       0.00000000
Si      -0.76540194      -3.52752524      -0.47374557       0.00000000
Si       2.53082159       2.69351892      -1.00957647       0.00000000
Si      -2.77493634      -2.56908680      -1.23329061       0.00000000
Si      -2.56518630      -0.89185632      -2.91366459       0.00000000
