10
Lattice="16.28999089631971 0.0 0.0 0.0 16.28999089631971 0.0 0.0 0.0 34.49183129400761" Properties=species:S:1:pos:R:3:initial_magmoms:R:1 pbc="T T T"
Si      -1.43470917       1.22665329      -1.35704737       0.00000000
Si      -1.51813026      -1.10767113       1.41713217       0.00000000
Si       1.44337545       1.22360706       1.43972433       0.00000000
Si       1.28309814      -1.50760692      -1.34718270       0.00000000
Si       0.29540286      -1.09618668       3.09329814       0.00000000
Si      -0.07977213       2.55981060      -2.71795782       0.00000000
Si      -3.29810598       0.63992007       1.66926760       0.00000000
Si      -2.78094735       2.55205656       0.14179600       0.00000000
Si       2.64040390      -0.15814332      -2.71475008       0.00000000
Si      -2.63225223      -2.73142575       0.06839734       0.00000000
