10
Lattice="16.28999089631971 0.0 0.0 0.0 16.28999089631971 0.0 0.0 0.0 34.49183129400761" Properties=species:S:1:pos:R:3:initial_magmoms:R:1 pbc="T T T"
Si      -2.36622024      -0.49264218      -0.05656663       0.00000000
Si       1.18019421       1.80646326      -1.12357203       0.00000000
Si       1.50941511      -0.58981203       2.02229169       0.00000000
Si       0.72894492      -2.36648088      -1.04938006       0.00000000
Si       1.87691751      -0.04668714      -2.70295387       0.00000000
Si      -2.96693028       1.35713619       1.33021271       0.00000000
Si       2.92312647       1.98118980       0.48937038       0.00000000
Si      -0.52025373       3.46978629      -0.65907028       0.00000000
Si      -1.25213085       3.05206182       1.56372254       0.00000000
Si       3.21342471      -1.48773312      -1.25205418       0.00000000
