10
Lattice="16.28999089631971 0.0 0.0 0.0 16.28999089631971 0.0 0.0 0.0 34.49183129400761" Properties=species:S:1:pos:R:3:initial_magmoms:R:1 pbc="T T T"
Si      -2.11028805       0.66285639      -0.70766930       0.00000000
Si      -0.63504936      -2.24244882      -0.21860935       0.00000000
Si       0.57893031       0.11258019       2.30005456       0.00000000
Si       0.99461920       0.64014813      -2.12235255       0.00000000
Si      -1.29010284       0.72430227      -2.92963431       0.00000000
Si       2.89992041       0.40591422       1.95948203       0.00000000
Si       0.66827088      -3.20453622       1.45410744       0.00000000
Si      -2.34619983       2.83908636       0.08209060       0.00000000
Si      -0.13660794      -1.96590978       3.31815052       0.00000000
Si      -3.93092361      -0.65736666      -0.11709983       0.00000000
