10
Lattice="16.28999089631971 0.0 0.0 0.0 16.28999089631971 0.0 0.0 0.0 34.49183129400761" Properties=species:S:1:pos:R:3:initial_magmoms:R:1 pbc="T T T"
Si      -1.95520725       0.77955795       1.08090561       0.00000000
Si       0.74238417       1.51799994      -1.71317573       0.00000000
Si      -0.78613911      -2.15987481      -0.76637443       0.00000000
Si       1.09200015      -0.82284048       2.04146916       0.00000000
Si      -0.26865468      -2.72473056       1.50743184       0.00000000
Si      -0.35986239       2.15713809       2.85896051       0.00000000
Si       3.09674529       1.44839277      -1.81889325       0.00000000
Si       3.45022200      -1.12528062       1.60252587       0.00000000
Si      -3.74021658       1.23950610      -0.55693991       0.00000000
Si       3.76411401       1.19589777       0.50409840       0.00000000
