10
Lattice="16.28999089631971 0.0 0.0 0.0 16.28999089631971 0.0 0.0 0.0 34.49183129400761" Properties=species:S:1:pos:R:3:initial_magmoms:R:1 pbc="T T T"
Si      -1.44998919       1.27263996      -1.36469421       0.00000000
Si      -1.37010303      -1.34425080       1.38435112       0.00000000
Si       1.34410419       1.37137365       1.38504095       0.00000000
Si       1.49100741      -1.40429574      -1.60240860       0.00000000
Si      -0.03425787       2.38405779      -2.84660695       0.00000000
Si       2.67972129       2.73222396       0.00702944       0.00000000
Si       2.70371646      -2.71402803      -0.00301459       0.00000000
Si      -2.73670371      -2.68918578       0.00033457       0.00000000
Si       2.69908436       0.01467729       2.74422682       0.00000000
Si      -2.71808424       2.72631069       0.02654148       0.00000000
