10
Lattice="16.28999089631971 0.0 0.0 0.0 16.28999089631971 0.0 0.0 0.0 34.49183129400761" Properties=species:S:1:pos:R:3:initial_magmoms:R:1 pbc="T T T"
Si      -1.35653346      -1.35581670       1.35652999       0.00000000
Si      -1.35752715       1.35775521      -1.35687491       0.00000000
Si       1.35772263      -1.35782037      -1.35753025       0.00000000
Si       1.35738054       1.35819504       1.35770271       0.00000000
Si      -2.70969489      -0.00304623       2.71471559       0.00000000
Si       2.71215468       0.00250866       2.71547441       0.00000000
Si      -2.71363707       0.00057015      -2.71426720       0.00000000
Si       0.00060273       2.71495656      -2.71354287       0.00000000
Si       2.71387568      -0.00001629      -2.71516399       0.00000000
Si      -2.71467963       2.71484253      -0.00006898       0.00000000
