10
Lattice="16.28999089631971 0.0 0.0 0.0 16.28999089631971 0.0 0.0 0.0 34.49183129400761" Properties=species:S:1:pos:R:3:initial_magmoms:R:1 pbc="T T T"
Si       1.00594008       2.12284764       0.15859353       0.00000000
Si      -0.73187712      -0.41772447       2.22279282       0.00000000
Si      -1.04827779      -0.17190837      -2.12869905       0.00000000
Si       1.70044794      -1.66332303      -0.46450175       0.00000000
Si       0.83707794       0.56464398      -3.39830958       0.00000000
Si       0.52025373      -3.46978629       0.65907028       0.00000000
Si       1.55970234       2.44481949      -2.16457057       0.00000000
Si      -2.44667655      -2.11265010       1.98928299       0.00000000
Si      -1.97501589       1.44296820       2.98920174       0.00000000
Si      -2.75447610       1.49978772      -2.26338973       0.00000000
