10
Lattice="16.28999089631971 0.0 0.0 0.0 16.28999089631971 0.0 0.0 0.0 34.49183129400761" Properties=species:S:1:pos:R:3:initial_magmoms:R:1 pbc="T T T"
Si       2.06505072       0.46693656      -0.93110751       0.00000000
Si       0.77102199      -2.12573097       0.63040755       0.00000000
Si      -1.65174084       0.12290805      -1.69568836       0.00000000
Si      -0.98606628       1.24147719       1.79336928       0.00000000
Si      -0.04916322      -2.18717685       2.85237257       0.00000000
Si      -2.89487961       1.98360072      -0.92927944       0.00000000
Si      -0.28507500      -0.01094688       3.64213247       0.00000000
Si      -3.28795731       1.17525834       1.26112553       0.00000000
Si       1.86070896       2.55133980      -2.00863292       0.00000000
Si       3.67605583      -0.02995731       0.76754715       0.00000000
