10
Lattice="16.28999089631971 0.0 0.0 0.0 16.28999089631971 0.0 0.0 0.0 34.49183129400761" Properties=species:S:1:pos:R:3:initial_magmoms:R:1 pbc="T T T"
Si      -2.06505072      -0.46693656       0.93110751       0.00000000
Si      -0.20434176       2.08440324      -1.07752541       0.00000000
Si       0.45846576      -1.41490053      -1.83893301       0.00000000
Si       1.61100511      -0.49689387       1.69865466       0.00000000
Si      -1.29402873      -2.59266753       1.56151506       0.00000000
Si       1.93062957       2.08927395      -2.14784203       0.00000000
Si       1.93332068      -0.09063756      -3.01510512       0.00000000
Si       0.99069331      -2.67682167       2.36879682       0.00000000
Si      -3.71679156      -0.34402851      -0.76458085       0.00000000
Si       3.74859683       0.06401970       0.85629468       0.00000000
