10
Lattice="16.28999089631971 0.0 0.0 0.0 16.28999089631971 0.0 0.0 0.0 34.49183129400761" Properties=species:S:1:pos:R:3:initial_magmoms:R:1 pbc="T T T"
Si       1.35252612       1.35617508      -1.37105106       0.00000000
Si      -1.36410831      -1.35894438      -1.36808476       0.00000000
Si       1.28034513      -1.39103568       1.46390312       0.00000000
Si      -1.38463371       1.37208880       1.39219456       0.00000000
Si      -0.68036814      -2.16308394       2.66911736       0.00000000
Si      -2.47445100      -0.38191905       2.59413208       0.00000000
Si       2.49759324       0.19412793       2.76390097       0.00000000
Si       2.69281586       2.71534167      -0.01076146       0.00000000
Si       2.70142187      -2.71573848       0.00348368       0.00000000
Si      -2.70785412      -2.72764647      -0.02849027       0.00000000
