10
Lattice="16.28999089631971 0.0 0.0 0.0 16.28999089631971 0.0 0.0 0.0 34.49183129400761" Properties=species:S:1:pos:R:3:initial_magmoms:R:1 pbc="T T T"
Si       0.66774339       0.40011498      -2.24052163       0.00000000
Si      -1.81430527       1.38570885       0.69080278       0.00000000
Si       1.81973961       0.66696147       1.42109874       0.00000000
Si      -0.60807475      -2.34737271      -0.03687179       0.00000000
Si      -1.60431739       0.48055500      -3.11240663       0.00000000
Si      -1.19399347       3.56563665       0.02066062       0.00000000
Si       3.68116533      -0.53941077       0.62016347       0.00000000
Si       0.68527143      -3.30243912       1.70089663       0.00000000
Si       1.43332452      -0.33603012       3.50730383       0.00000000
Si       1.63611873       2.53237824      -2.44271286       0.00000000
