10
Lattice="16.28999089631971 0.0 0.0 0.0 16.28999089631971 0.0 0.0 0.0 34.49183129400761" Properties=species:S:1:pos:R:3:initial_magmoms:R:1 pbc="T T T"
Si      -1.35890270       1.33794657       1.43563705       0.00000000
Si       1.37847609      -1.36314720       1.44438418       0.00000000
Si      -0.63713285      -1.85574051      -1.48384428       0.00000000
Si       1.04554107       1.78966827      -1.49219131       0.00000000
Si      -0.78127329       3.38224383      -1.09176020       0.00000000
Si      -2.54761658      -2.79857313      -0.17380099       0.00000000
Si      -2.77603496       2.59450830      -0.11427150       0.00000000
Si       2.77796628      -2.60227863      -0.00036561       0.00000000
Si       0.02386811       2.69027721       2.81071676       0.00000000
Si      -2.69451980      -0.02290374       2.81364857       0.00000000
