10
Lattice="16.28999089631971 0.0 0.0 0.0 16.28999089631971 0.0 0.0 0.0 34.49183129400761" Properties=species:S:1:pos:R:3:initial_magmoms:R:1 pbc="T T T"
Si      -1.35418770       1.35853713      -1.36222115       0.00000000
Si       1.36011726      -1.36029645      -1.36087596       0.00000000
Si      -1.36246791      -1.35812988       1.36805027       0.00000000
Si       1.37911140       1.35925389       1.37298260       0.00000000
Si       0.14695209      -2.57843007       2.70095334       0.00000000
Si      -2.71136366       2.71378368      -0.00648447       0.00000000
Si      -2.71462166      -2.71368594      -0.00300079       0.00000000
Si      -2.71140303      -0.00112401      -2.71840622       0.00000000
Si       2.71595025       2.71424261      -0.00124171       0.00000000
Si       0.00306252       2.71388436      -2.71823376       0.00000000
