10
Lattice="16.28999089631971 0.0 0.0 0.0 16.28999089631971 0.0 0.0 0.0 34.49183129400761" Properties=species:S:1:pos:R:3:initial_magmoms:R:1 pbc="T T T"
Si      -1.35675591      -1.35671356      -1.35690940       0.00000000
Si       1.35663934      -1.35731637       1.35780619       0.00000000
Si      -1.35776901       1.35709058       1.35770271       0.00000000
Si       1.35898510       1.35779105      -1.35656448       0.00000000
Si      -0.00061088      -2.71266360       2.71381880       0.00000000
Si      -2.71347321      -0.00001955       2.71447415       0.00000000
Si       2.71437826      -2.71504194       0.00000000       0.00000000
Si       2.71434568       2.71517159       0.00051738       0.00000000
Si       0.00022154       2.71546481       2.71447415       0.00000000
Si       2.71502986       0.00101975       2.71502602       0.00000000
