10
Lattice="16.28999089631971 0.0 0.0 0.0 16.28999089631971 0.0 0.0 0.0 34.49183129400761" Properties=species:S:1:pos:R:3:initial_magmoms:R:1 pbc="T T T"
Si      -0.87412140       0.96871484      -1.94289145       0.00000000
Si      -1.07119945      -2.09046312       0.05090997       0.00000000
Si       2.26913184       0.14375925      -0.61312714       0.00000000
Si      -0.14216283       1.05264092       2.10624486       0.00000000
Si       0.53530569       0.02257794      -3.63361298       0.00000000
Si       2.68337025       2.52134081      -0.61492071       0.00000000
Si       0.16516431      -3.44652417      -1.51898661       0.00000000
Si      -3.28607486      -1.65237615      -0.91603457       0.00000000
Si      -0.49415715       3.28806224      -1.83541484       0.00000000
Si      -2.31853615       0.69586060       2.92739234       0.00000000
