10
Lattice="16.28999089631971 0.0 0.0 0.0 16.28999089631971 0.0 0.0 0.0 34.49183129400761" Properties=species:S:1:pos:R:3:initial_magmoms:R:1 pbc="T T T"
Si       0.33702381      -2.04301035       1.09780662       0.00000000
Si      -1.48094345      -0.01775610      -1.90633009       0.00000000
Si      -1.23636376       1.35606105       1.56989658       0.00000000
Si       2.24108046       0.37105362      -0.89085552       0.00000000
Si      -0.34049358       1.53011970      -3.34877928       0.00000000
Si      -3.61591478      -0.02262681      -0.83601347       0.00000000
Si      -1.80056791      -2.60392392       1.94016659       0.00000000
Si      -0.16516431       3.44652417       1.51898661       0.00000000
Si       2.15306559      -1.15059528      -2.89752240       0.00000000
Si       2.20343427      -1.71383832       2.57181585       0.00000000
