10
Lattice="10.86 0.0 0.0 0.0 10.86 0.0 0.0 0.0 10.86" Properties=species:S:1:pos:R:3:initial_magmoms:R:1 pbc="T T T"
Si      -1.31018298      -1.30175562       1.40695644       0.00000000
Si      -1.31018298       1.41324438      -1.30804356       0.00000000
Si       1.40481702       1.41324438       1.40695644       0.00000000
Si      -2.78739276      -2.44980966       0.10483158       0.00000000
Si      -2.65828908      -0.05978430      -2.70948312       0.00000000
Si       0.04731702      -2.65925562       2.76445644       0.00000000
Si      -2.66768298       0.05574438       2.76445644       0.00000000
Si       0.04731702       2.77074438      -2.66554356       0.00000000
Si      -2.66768298       2.77074438       0.04945644       0.00000000
Si       2.93549058      -0.03173292      -2.55025380       0.00000000
