10
Lattice="10.86 0.0 0.0 0.0 10.86 0.0 0.0 0.0 10.86" Properties=species:S:1:pos:R:3:initial_magmoms:R:1 pbc="T T T"
Si       1.18432644       1.44497730       1.24221024       0.00000000
Si       1.18432644      -1.27002270      -1.47278976       0.00000000
Si      -1.53067356       1.44497730      -1.47278976       0.00000000
Si       2.54182644       0.08747730       2.59971024       0.00000000
Si       2.54182644      -2.62752270      -0.11528976       0.00000000
Si      -0.16793904      -2.70015438       2.63686230       0.00000000
Si       2.54182644       2.80247730      -0.11528976       0.00000000
Si       2.54182644       0.08747730      -2.83028976       0.00000000
Si      -0.17317356       2.80247730       2.59971024       0.00000000
Si      -2.93549058       0.03173292       2.55025380       0.00000000
