10
Lattice="10.86 0.0 0.0 0.0 10.86 0.0 0.0 0.0 10.86" Properties=species:S:1:pos:R:3:initial_magmoms:R:1 pbc="T T T"
Si       1.30500276      -1.30229862      -1.18875732       0.00000000
Si      -1.40999724       1.41270138      -1.18875732       0.00000000
Si      -1.40999724      -1.30229862       1.52624268       0.00000000
Si      -0.05249724      -2.65979862      -2.54625732       0.00000000
Si       2.66250276       0.05520138      -2.54625732       0.00000000
Si      -2.76749724       0.05520138      -2.54625732       0.00000000
Si       2.56432836       2.74845966       0.15924018       0.00000000
Si      -0.05249724       2.77020138      -2.54625732       0.00000000
Si       2.66250276      -2.65979862       0.16874268       0.00000000
Si      -2.76749724      -2.65979862       0.16874268       0.00000000
