10
Lattice="16.28999089631971 0.0 0.0 0.0 16.28999089631971 0.0 0.0 0.0 34.56409401068381" Properties=species:S:1:pos:R:3:initial_magmoms:R:1 pbc="T T T"
Si      -1.57829086       1.47685140      -0.87796304       0.00000000
Si      -0.91255765      -0.42352371       2.13257123       0.00000000
Si       0.28395099      -2.08086831      -1.10370127       0.00000000
Si       1.84365333       1.43156520       0.50798877       0.00000000
Si       1.13538042      -1.29158523       2.95585384       0.00000000
Si      -0.97203407       1.88923275       2.84994940       0.00000000
Si      -1.77459187       3.02603107       0.90063710       0.00000000
Si       2.45869857       2.18818683      -1.65845529       0.00000000
Si       1.90400778      -3.20790825       0.18913483       0.00000000
Si      -3.31407737      -1.72025658      -0.43136013       0.00000000
