10
Lattice="16.28999089631971 0.0 0.0 0.0 16.28999089631971 0.0 0.0 0.0 34.56409401068381" Properties=species:S:1:pos:R:3:initial_magmoms:R:1 pbc="T T T"
Si       1.48895487      -1.24174679       1.32951553       0.00000000
Si      -1.23360912       1.50268245       1.32996832       0.00000000
Si      -1.35852084      -0.96052193      -1.76366987       0.00000000
Si       1.99172943       0.57965847      -1.29372819       0.00000000
Si       0.62633421      -0.41666399      -3.08716433       0.00000000
Si      -2.45547315      -2.48345515      -0.12566129       0.00000000
Si       0.13869306      -2.58329656       2.69912544       0.00000000
Si      -2.58810633       0.13880872       2.69549620       0.00000000
Si      -2.51836884       2.91673590      -0.15091038       0.00000000
Si       2.76252336       2.69590866      -0.13793155       0.00000000
