10
Lattice="16.28999089631971 0.0 0.0 0.0 16.28999089631971 0.0 0.0 0.0 34.56409401068381" Properties=species:S:1:pos:R:3:initial_magmoms:R:1 pbc="T T T"
Si      -1.35114147      -1.36029645       1.36123848       0.00000000
Si      -1.35516510       1.35711990      -1.36054719       0.00000000
Si       1.35904212      -1.35711990      -1.35989047       0.00000000
Si       1.36337526       1.35834165       1.37454566       0.00000000
Si      -2.70598077      -0.01226637       2.71124361       0.00000000
Si      -2.71272483       2.71208952      -0.00193559       0.00000000
Si      -2.71174743      -2.71741635       0.00041477       0.00000000
Si       2.71678104       2.71285515       0.00013826       0.00000000
Si      -2.71391400      -0.00084708      -2.71767254       0.00000000
Si       0.00158013       2.71437012      -2.71760341       0.00000000
