10
Lattice="16.28999089631971 0.0 0.0 0.0 16.28999089631971 0.0 0.0 0.0 34.56409401068381" Properties=species:S:1:pos:R:3:initial_magmoms:R:1 pbc="T T T"
Si       1.09533960      -0.55379484       2.01702340       0.00000000
Si      -1.92360465       1.29295359       0.47442702       0.00000000
Si       0.59912991      -0.36334845      -2.26090778       0.00000000
Si       0.68562981      -2.55039498      -1.55604182       0.00000000
Si       3.24221499       0.83465073      -0.17814344       0.00000000
Si       3.19223727      -1.22613201       0.98511179       0.00000000
Si       2.53807974       1.00181871      -2.38129459       0.00000000
Si       0.51808716       1.31561298       3.36661377       0.00000000
Si      -1.68345747      -3.22626708      -0.65492082       0.00000000
Si      -1.33488405       2.53304613       2.38219325       0.00000000
