10
Lattice="16.28999089631971 0.0 0.0 0.0 16.28999089631971 0.0 0.0 0.0 34.56409401068381" Properties=species:S:1:pos:R:3:initial_magmoms:R:1 pbc="T T T"
Si       0.98587080       1.05946902       1.83932929       0.00000000
Si      -1.91435193       1.46974896      -0.10891152       0.00000000
Si       1.95411582       0.11914506      -1.41619542       0.00000000
Si      -0.50218812      -2.26813815       0.69366719       0.00000000
Si      -0.97142157      -1.70732232      -2.84161945       0.00000000
Si       1.06297137      -0.60261597      -3.50500848       0.00000000
Si       1.22228757       3.40267149       1.18910919       0.00000000
Si      -2.07368442       2.45060244       2.11349184       0.00000000
Si      -0.57176271       1.34268696       3.57171721       0.00000000
Si      -1.09090872      -3.50823069      -1.21409904       0.00000000
