10
Lattice="16.28999089631971 0.0 0.0 0.0 16.28999089631971 0.0 0.0 0.0 34.56409401068381" Properties=species:S:1:pos:R:3:initial_magmoms:R:1 pbc="T T T"
Si       0.86333742       0.55204855      -2.10578404       0.00000000
Si      -2.01217175      -1.12234257      -0.41981572       0.00000000
Si       1.76827950      -1.37294793       0.91670941       0.00000000
Si      -0.59552982       2.00954743       1.38149305       0.00000000
Si      -2.26870993      -2.08428336       1.69720166       0.00000000
Si       3.13668837       1.06055719      -1.46624425       0.00000000
Si      -0.84224187       1.90648060      -3.01478566       0.00000000
Si       3.61444149       0.07273485       0.69235375       0.00000000
Si      -3.70438577       0.49252978      -0.40135848       0.00000000
Si      -0.85734270       1.15759672       3.58543917       0.00000000
