10
Lattice="16.28999089631971 0.0 0.0 0.0 16.28999089631971 0.0 0.0 0.0 34.56409401068381" Properties=species:S:1:pos:R:3:initial_magmoms:R:1 pbc="T T T"
Si       1.07701335      -0.63757431      -1.98750564       0.00000000
Si      -0.48070161      -1.78764831       1.47720108       0.00000000
Si      -1.72522503       1.38886911      -0.87035894       0.00000000
Si       1.63338201       1.20808269       1.27610706       0.00000000
Si       1.26623799       1.41892416      -3.10862722       0.00000000
Si      -2.57054571      -1.11889494       2.48837421       0.00000000
Si       2.96108217      -1.82845476      -1.41076885       0.00000000
Si      -1.07758350       1.89385911      -3.10174897       0.00000000
Si      -3.66679755       0.08042373      -1.12475081       0.00000000
Si       2.54692521      -0.46581255       2.85036417       0.00000000
