10
Lattice="16.28999089631971 0.0 0.0 0.0 16.28999089631971 0.0 0.0 0.0 34.56409401068381" Properties=species:S:1:pos:R:3:initial_magmoms:R:1 pbc="T T T"
Si      -2.21499921       0.72760751      -0.06446207       0.00000000
Si       1.60766824       1.69270042       0.10963737       0.00000000
Si       0.19630102      -1.54917967      -1.77860014       0.00000000
Si       0.80255780      -1.13679832       1.94931230       0.00000000
Si       3.27969013       0.36172759       1.01649601       0.00000000
Si      -2.08665030       2.15867587      -1.97751662       0.00000000
Si      -1.15899996      -1.27840729       3.15556529       0.00000000
Si       1.77459187      -3.02603107      -0.90063710       0.00000000
Si      -1.91368308      -2.48772802      -1.87171586       0.00000000
Si      -2.46273753       2.00356249       1.89553054       0.00000000
