10
Lattice="16.28999089631971 0.0 0.0 0.0 16.28999089631971 0.0 0.0 0.0 34.56409401068381" Properties=species:S:1:pos:R:3:initial_magmoms:R:1 pbc="T T T"
Si       1.35561051       1.35817875       1.35733273       0.00000000
Si       1.35758160      -1.35676641      -1.35722904       0.00000000
Si      -1.35747012       1.35757602      -1.35705622       0.00000000
Si      -1.35834978      -1.35791159       1.35788576       0.00000000
Si      -0.00113259       2.71445157       2.71207315       0.00000000
Si       2.71477643       0.00008145      -2.71331746       0.00000000
Si      -2.71317279      -0.00047241       2.71508023       0.00000000
Si       0.00226829      -2.71466779       2.71428526       0.00000000
Si      -2.71543710      -0.00001629      -2.71355941       0.00000000
Si       2.71482530      -2.71434805      -0.00013826       0.00000000
