10
Lattice="16.28999089631971 0.0 0.0 0.0 16.28999089631971 0.0 0.0 0.0 34.56409401068381" Properties=species:S:1:pos:R:3:initial_magmoms:R:1 pbc="T T T"
Si       1.34402274       1.34140005      -1.39874054       0.00000000
Si      -1.37425698      -1.37251395      -1.39697777       0.00000000
Si      -1.16043444       1.48532220       1.55991300       0.00000000
Si       1.47791025      -1.26113922       1.52337873       0.00000000
Si      -2.45325771      -0.04079016       2.86166663       0.00000000
Si       2.69508276       2.70990666      -0.02146431       0.00000000
Si       2.69500131      -2.71352304      -0.02243211       0.00000000
Si      -2.71909422       2.69412165      -0.00701652       0.00000000
Si      -2.71207323      -2.73320136      -0.04714545       0.00000000
Si      -0.01415601       2.70197343      -2.75704106       0.00000000
