10
Lattice="16.28999089631971 0.0 0.0 0.0 16.28999089631971 0.0 0.0 0.0 34.56409401068381" Properties=species:S:1:pos:R:3:initial_magmoms:R:1 pbc="T T T"
Si      -0.26181288      -0.85195071       2.20394612       0.00000000
Si       1.56789621       1.83866859      -0.14167830       0.00000000
Si      -2.18743260       1.12549239       0.25214521       0.00000000
Si       0.59552982      -2.00954743      -1.38149305       0.00000000
Si       2.68063353       1.59301539       1.95266502       0.00000000
Si      -2.36902931       2.14930260      -1.83801585       0.00000000
Si      -1.86948113      -2.54465113       2.09430875       0.00000000
Si      -1.41664193      -3.13189001      -1.80130877       0.00000000
Si      -3.10885595      -1.51701765      -1.78285153       0.00000000
Si       0.39006405       3.90653748       0.05855161       0.00000000
