10
Lattice="16.28999089631971 0.0 0.0 0.0 16.28999089631971 0.0 0.0 0.0 34.56409401068381" Properties=species:S:1:pos:R:3:initial_magmoms:R:1 pbc="T T T"
Si       1.38447081      -1.93420781      -0.29707855       0.00000000
Si      -2.31290307      -0.58556523       0.48500364       0.00000000
Si       1.32230817       2.23032906       0.02129149       0.00000000
Si      -1.69916103      -0.25500366      -2.03983571       0.00000000
Si       1.68492357      -0.01975977       2.08694660       0.00000000
Si       2.18807280       1.40468670      -2.06513664       0.00000000
Si       0.22973787       0.69986727      -3.44631861       0.00000000
Si       3.42037872      -1.18303356       0.88197248       0.00000000
Si      -3.11559282       1.37901366       1.52019883       0.00000000
Si      -2.02175190      -1.92595530       2.56711126       0.00000000
