10
Lattice="16.28999089631971 0.0 0.0 0.0 16.28999089631971 0.0 0.0 0.0 34.56409401068381" Properties=species:S:1:pos:R:3:initial_magmoms:R:1 pbc="T T T"
Si      -1.35653346       1.36010097      -1.36020155       0.00000000
Si       1.35988920      -1.35576783      -1.36141130       0.00000000
Si      -1.35340578      -1.35451350       1.37440740       0.00000000
Si       1.35070164       1.37319813       1.37454566       0.00000000
Si      -2.60522712       0.15899040       2.76208742       0.00000000
Si       2.71150308      -2.71274112      -0.00556482       0.00000000
Si      -2.71678104      -2.71285515      -0.00013826       0.00000000
Si       2.71306692       2.71666701      -0.00297251       0.00000000
Si       0.00009774      -2.71316466      -2.71819100       0.00000000
Si      -2.71855665       2.71420722       0.00000000       0.00000000
