10
Lattice="16.28999089631971 0.0 0.0 0.0 16.28999089631971 0.0 0.0 0.0 34.56409401068381" Properties=species:S:1:pos:R:3:initial_magmoms:R:1 pbc="T T T"
Si      -0.58712418      -2.24552763      -0.26773362       0.00000000
Si       0.06393825       0.95242743      -2.17100652       0.00000000
Si      -1.82202021       0.76947444       1.32743477       0.00000000
Si       2.10786084      -0.12826746       1.17379729       0.00000000
Si      -1.58566860      -0.81313164       3.04012115       0.00000000
Si      -0.91678491      -2.88507629       2.03810751       0.00000000
Si       0.56366658       3.19412691      -1.91039311       0.00000000
Si      -1.26187227       3.06424674       1.80158528       0.00000000
Si       1.05334398      -3.27967547      -1.72419623       0.00000000
Si       3.63861585      -1.27244448      -0.21377904       0.00000000
