10
Lattice="16.28999089631971 0.0 0.0 0.0 16.28999089631971 0.0 0.0 0.0 34.56409401068381" Properties=species:S:1:pos:R:3:initial_magmoms:R:1 pbc="T T T"
Si      -1.47737268       1.18094355      -1.34032719       0.00000000
Si       1.68565662       0.89303409       1.33794226       0.00000000
Si       0.88239672      -1.49897322      -1.57588162       0.00000000
Si      -1.34110683      -0.21486510       1.97271220       0.00000000
Si       0.10360440       1.24615242       3.08021552       0.00000000
Si      -3.07265238      -0.54286425      -1.56281638       0.00000000
Si       2.92214907      -0.93755466       2.24670193       0.00000000
Si       0.78408657      -0.43337916      -3.71308444       0.00000000
Si      -0.65500461       1.45384992      -3.54665823       0.00000000
Si      -0.49016610      -3.37973517      -1.98252841       0.00000000
