10
Lattice="16.28999089631971 0.0 0.0 0.0 16.28999089631971 0.0 0.0 0.0 34.56409401068381" Properties=species:S:1:pos:R:3:initial_magmoms:R:1 pbc="T T T"
Si      -1.36203948      -1.35024124       1.36460848       0.00000000
Si       1.35361755       1.36739570       1.36619843       0.00000000
Si      -1.34762283       1.35082877      -1.39223557       0.00000000
Si       1.40476815      -1.31445211      -1.41834530       0.00000000
Si       2.70884438      -2.69916727       0.00965030       0.00000000
Si       2.70376533       2.71632010      -0.00110260       0.00000000
Si      -2.70796815      -2.71703740      -0.01002359       0.00000000
Si      -0.00514764      -2.70522715       2.72522480       0.00000000
Si       2.70927135       0.00993343       2.72460264       0.00000000
Si      -2.71821456       2.72273836      -0.00423065       0.00000000
