10
Lattice="16.28999089631971 0.0 0.0 0.0 16.28999089631971 0.0 0.0 0.0 34.56409401068381" Properties=species:S:1:pos:R:3:initial_magmoms:R:1 pbc="T T T"
Si       1.35014778       1.34892440      -1.36730102       0.00000000
Si       1.35565380      -1.35746227       1.35840422       0.00000000
Si      -1.36006839       1.35711827       1.35961396       0.00000000
Si      -1.35361755      -1.36739570      -1.36619843       0.00000000
Si       2.71448971       2.71283723      -0.00110605       0.00000000
Si       2.71154122      -2.71639890       0.00003456       0.00000000
Si       2.71295030       0.00036815       2.71594433       0.00000000
Si      -0.00210141       2.71471058       2.71611715       0.00000000
Si      -0.00190593      -2.71509570       2.71584064       0.00000000
Si      -2.71666701       0.00007656       2.71611715       0.00000000
