10
Lattice="16.28999089631971 0.0 0.0 0.0 16.28999089631971 0.0 0.0 0.0 34.56409401068381" Properties=species:S:1:pos:R:3:initial_magmoms:R:1 pbc="T T T"
Si      -1.35565380       1.35746227      -1.35840422       0.00000000
Si      -1.35755973      -1.35763343       1.35743642       0.00000000
Si       1.35729650       1.35783042       1.35754012       0.00000000
Si       1.35588742      -1.35893663      -1.35836965       0.00000000
Si      -0.00042697      -2.70910070      -2.71495234       0.00000000
Si       2.71372571      -2.71449269       0.00034564       0.00000000
Si       2.71449134       2.71467828       0.00145169       0.00000000
Si       2.71454021       0.00024877       2.71463090       0.00000000
Si      -0.00028509       2.71459683       2.71476915       0.00000000
Si      -2.71441899      -2.71516058       0.00062215       0.00000000
