10
Lattice="16.28999089631971 0.0 0.0 0.0 16.28999089631971 0.0 0.0 0.0 34.56409401068381" Properties=species:S:1:pos:R:3:initial_magmoms:R:1 pbc="T T T"
Si      -1.35659862      -1.35704171       1.35650319       0.00000000
Si       1.35796698       1.35759231       1.35650319       0.00000000
Si      -1.35865116       1.35700587      -1.36110022       0.00000000
Si       1.36006839      -1.35711827      -1.35961396       0.00000000
Si       0.00053757      -2.71428765       2.71338659       0.00000000
Si      -2.71487511       0.00058644       2.71349028       0.00000000
Si       0.00048870       2.71539639       2.71349028       0.00000000
Si       2.71543710       0.00001629       2.71355941       0.00000000
Si       2.71572219      -2.71458054      -0.00120974       0.00000000
Si      -2.71459818       2.71601541      -0.00010369       0.00000000
