10
Lattice="16.28999089631971 0.0 0.0 0.0 16.28999089631971 0.0 0.0 0.0 34.56409401068381" Properties=species:S:1:pos:R:3:initial_magmoms:R:1 pbc="T T T"
Si       1.35675175      -1.35711990       1.35747099       0.00000000
Si      -1.35755232       1.35739683       1.35757468       0.00000000
Si      -1.35728482      -1.35734796      -1.35861160       0.00000000
Si       1.35839704       1.35811359      -1.35802401       0.00000000
Si      -0.00207209      -2.71435383       2.71445808       0.00000000
Si      -2.71502239      -0.00027693       2.71411243       0.00000000
Si       2.71440922      -2.71476108      -0.00003456       0.00000000
Si       2.71550065       0.00084708       2.71459633       0.00000000
Si      -2.71515271      -2.71495656       0.00006913       0.00000000
Si       2.71447438       2.71565703      -0.00013826       0.00000000
