10
Lattice="16.28999089631971 0.0 0.0 0.0 16.28999089631971 0.0 0.0 0.0 34.56409401068381" Properties=species:S:1:pos:R:3:initial_magmoms:R:1 pbc="T T T"
Si      -1.34229600      -1.35529417      -1.37420002       0.00000000
Si       1.37647242       1.35400362      -1.37464935       0.00000000
Si       1.41040449      -1.34389157       1.37299027       0.00000000
Si      -1.29482694       1.50062991       1.40565336       0.00000000
Si       2.33549730       0.42498492       2.60717107       0.00000000
Si       0.66350799       2.20544934       2.78683533       0.00000000
Si      -2.68314219       2.72089752      -0.03276678       0.00000000
Si      -2.70443322      -2.70977212       0.00394031       0.00000000
Si      -2.69713530      -0.00343393      -2.73284618       0.00000000
Si       0.01736514       2.71320864      -2.73167100       0.00000000
