10
Lattice="16.28999089631971 0.0 0.0 0.0 16.28999089631971 0.0 0.0 0.0 34.56409401068381" Properties=species:S:1:pos:R:3:initial_magmoms:R:1 pbc="T T T"
Si      -1.42327359       1.25131635       1.32871364       0.00000000
Si       1.34666127       1.36265850      -1.34464770       0.00000000
Si      -1.36537893      -1.35226548      -1.34164062       0.00000000
Si       1.33921719      -1.37204154       1.35491324       0.00000000
Si      -0.40635405      -2.28128418       2.64017980       0.00000000
Si      -2.07834336      -0.50081976       2.81984406       0.00000000
Si       0.01891269       2.53521270       2.58615609       0.00000000
Si       2.70340436       0.00638568      -2.69938812       0.00000000
Si      -0.01055592      -2.70970466      -2.69883510       0.00000000
Si      -0.00954594       2.72046258      -2.69973376       0.00000000
