10
Lattice="16.28999089631971 0.0 0.0 0.0 16.28999089631971 0.0 0.0 0.0 34.56409401068381" Properties=species:S:1:pos:R:3:initial_magmoms:R:1 pbc="T T T"
Si      -1.35483930       1.34803008       1.35000514       0.00000000
Si       1.35114147       1.36029645      -1.36123848       0.00000000
Si      -1.36060596      -1.35711990      -1.36082371       0.00000000
Si       1.33289667      -1.37876931       1.41242793       0.00000000
Si      -2.63461265      -0.04202820       2.73391767       0.00000000
Si      -2.71901603       2.71067229      -0.01223570       0.00000000
Si       2.71018359       0.00317655      -2.72112895       0.00000000
Si       2.71451673       2.71863810       0.01330718       0.00000000
Si      -0.00457749      -2.71423654      -2.72292628       0.00000000
Si      -0.00402363       2.71741635      -2.72178567       0.00000000
