10
Lattice="16.28999089631971 0.0 0.0 0.0 16.28999089631971 0.0 0.0 0.0 34.56409401068381" Properties=species:S:1:pos:R:3:initial_magmoms:R:1 pbc="T T T"
Si      -1.35674309       1.35627282       1.35474042       0.00000000
Si      -1.35561051      -1.35817875      -1.35733273       0.00000000
Si       1.35882383       1.35723393      -1.35698709       0.00000000
Si       1.36099040      -1.35933534       1.36110022       0.00000000
Si      -2.70340436      -0.00638568       2.69938812       0.00000000
Si       0.00258034       2.70845685       2.70968823       0.00000000
Si      -2.71295030       2.71407690      -0.00034564       0.00000000
Si      -2.71308062      -0.00060273      -2.71438895       0.00000000
Si       0.00207209       2.71435383      -2.71445808       0.00000000
Si       0.00197109      -2.71494516      -2.71456177       0.00000000
