10
Lattice="16.28999089631971 0.0 0.0 0.0 16.28999089631971 0.0 0.0 0.0 34.56409401068381" Properties=species:S:1:pos:R:3:initial_magmoms:R:1 pbc="T T T"
Si      -1.34666127      -1.36265850       1.34464770       0.00000000
Si       1.35932343       1.35218403       1.35494781       0.00000000
Si       1.35674309      -1.35627282      -1.35474042       0.00000000
Si      -1.35620721       1.35780408      -1.35508606       0.00000000
Si      -0.02011770       2.69755884       2.64930472       0.00000000
Si      -2.71381581       0.00092853      -2.71214228       0.00000000
Si       0.00113259      -2.71445157      -2.71207315       0.00000000
Si      -2.71114425       2.71546155       0.00197015       0.00000000
Si      -2.71204020      -2.71492398       0.00300708       0.00000000
Si       0.00126286       2.71547784      -2.71162382       0.00000000
