10
Lattice="16.28999089631971 0.0 0.0 0.0 16.28999089631971 0.0 0.0 0.0 34.56409401068381" Properties=species:S:1:pos:R:3:initial_magmoms:R:1 pbc="T T T"
Si      -0.32731497      -1.53619587       1.76304629       0.00000000
Si       0.32614209       1.95748785       1.33977416       0.00000000
Si       1.90852078      -0.99857700      -1.08645377       0.00000000
Si      -1.95082524      -0.01127268      -1.42196762       0.00000000
Si      -2.19699972      -2.32914420      -1.70096915       0.00000000
Si      -1.85806998      -0.39201885       3.15062262       0.00000000
Si       1.99173010       3.22012575       0.10673398       0.00000000
Si       1.65568302      -1.46318409       3.08512363       0.00000000
Si      -1.21210632       3.58111215       0.65395302       0.00000000
Si      -0.39325689       1.37559276       3.59760574       0.00000000
