10
Lattice="16.28999089631971 0.0 0.0 0.0 16.28999089631971 0.0 0.0 0.0 34.56409401068381" Properties=species:S:1:pos:R:3:initial_magmoms:R:1 pbc="T T T"
Si       1.46481309       1.76761161       0.44698311       0.00000000
Si       1.53075501      -1.14417702      -1.38757633       0.00000000
Si      -0.19168443      -0.82870488       2.23353300       0.00000000
Si      -2.10786084       0.12826746      -1.17379729       0.00000000
Si       3.51375300      -1.07116524      -0.06549899       0.00000000
Si       1.85806998       0.39201885      -3.15062262       0.00000000
Si       2.18421207       2.34950670      -1.81084846       0.00000000
Si      -0.98692965      -2.99152003       1.92743322       0.00000000
Si      -2.69498502      -2.11726017      -1.44153091       0.00000000
Si       3.42094887       0.84988188       1.29777876       0.00000000
