10
Lattice="16.28999089631971 0.0 0.0 0.0 16.28999089631971 0.0 0.0 0.0 34.56409401068381" Properties=species:S:1:pos:R:3:initial_magmoms:R:1 pbc="T T T"
Si      -0.74357334      -2.00865474       0.91608242       0.00000000
Si      -1.57235967       1.71802485      -0.34031070       0.00000000
Si       2.00067331       0.74937258       1.01978859       0.00000000
Si      -2.01577347      -0.60299064       2.39849231       0.00000000
Si       0.69414605       2.12002947       2.41403925       0.00000000
Si      -3.37852971       0.66828096       0.92146060       0.00000000
Si      -0.60993018       3.50474463       0.98604364       0.00000000
Si      -1.46779416       1.84581990      -2.86926318       0.00000000
Si      -0.66583746       0.75909771       3.77414747       0.00000000
Si      -2.60017722      -2.98494702      -0.44327719       0.00000000
