10
Lattice="16.28999089631971 0.0 0.0 0.0 16.28999089631971 0.0 0.0 0.0 34.56409401068381" Properties=species:S:1:pos:R:3:initial_magmoms:R:1 pbc="T T T"
Si       1.35674845       1.35708732      -1.35712535       0.00000000
Si      -1.35685926       1.35671265       1.35757468       0.00000000
Si      -1.35783666      -1.35848826      -1.35601929       0.00000000
Si       1.35841489      -1.35874890       1.35785119       0.00000000
Si      -2.71422351       2.71402803      -0.00003456       0.00000000
Si      -2.71407690       0.00001629      -2.71459633       0.00000000
Si      -0.00184077       2.71668330      -2.71221141       0.00000000
Si      -0.00216657      -2.71182888      -2.71736146       0.00000000
Si       2.71521135       2.71458189      -0.00020738       0.00000000
Si      -2.71503801      -0.00131949       2.71494197       0.00000000
