10
Lattice="16.28999089631971 0.0 0.0 0.0 16.28999089631971 0.0 0.0 0.0 34.56409401068381" Properties=species:S:1:pos:R:3:initial_magmoms:R:1 pbc="T T T"
Si      -1.37821545      -1.25547030      -1.44937696       0.00000000
Si       1.27254222       1.33719723      -1.50969134       0.00000000
Si       1.15926156      -1.80426411       1.11787255       0.00000000
Si      -0.98036478       1.64188539       1.52666232       0.00000000
Si      -0.91564461      -2.87116137       1.65098944       0.00000000
Si       2.53270404       2.50608618       0.07628300       0.00000000
Si      -2.48881878       2.74642884       0.09868054       0.00000000
Si       0.73809990       3.40534305       1.34008524       0.00000000
Si      -2.63191014      -2.69998605      -0.06549899       0.00000000
Si       2.78593209      -0.85292811       2.50683145       0.00000000
