10
Lattice="16.28999089631971 0.0 0.0 0.0 16.28999089631971 0.0 0.0 0.0 34.56409401068381" Properties=species:S:1:pos:R:3:initial_magmoms:R:1 pbc="T T T"
Si      -0.73140471      -2.04846750       0.81149625       0.00000000
Si      -0.58570695       0.52870824      -2.22668931       0.00000000
Si      -0.82614735       1.74664638       1.36659591       0.00000000
Si       2.36528945      -0.19966653       0.14485820       0.00000000
Si       0.13326849      -3.31353261      -0.99513539       0.00000000
Si       1.30857570       1.94800707      -2.73505829       0.00000000
Si       2.75077568       0.93014271       2.24580326       0.00000000
Si       1.04946696       2.61848718       2.45598764       0.00000000
Si       3.23473203       1.00203048      -1.69872248       0.00000000
Si      -1.82614158       0.93103866       3.30961754       0.00000000
