10
Lattice="16.28999089631971 0.0 0.0 0.0 16.28999089631971 0.0 0.0 0.0 34.56409401068381" Properties=species:S:1:pos:R:3:initial_magmoms:R:1 pbc="T T T"
Si      -1.07417074       1.53060840      -1.31945046       0.00000000
Si      -1.79717307      -1.06795611       1.08479470       0.00000000
Si       1.66464252      -1.15043238      -1.21171412       0.00000000
Si       1.09116936       1.78144182       1.32577569       0.00000000
Si       0.97168221      -0.01946655       2.95329610       0.00000000
Si      -2.62808918       2.35001169       0.23071546       0.00000000
Si      -2.43718667       0.09599697      -2.57872480       0.00000000
Si      -0.96057895      -1.37539728       3.17246714       0.00000000
Si      -0.64510029       3.37419657       1.17134324       0.00000000
Si       0.30643119      -2.61202005      -2.51084088       0.00000000
