10
Lattice="16.28999089631971 0.0 0.0 0.0 16.28999089631971 0.0 0.0 0.0 34.56409401068381" Properties=species:S:1:pos:R:3:initial_magmoms:R:1 pbc="T T T"
Si      -1.35645201      -1.35687555      -1.35764381       0.00000000
Si       1.35876519      -1.35640314       1.35913006       0.00000000
Si       1.35878148       1.35898516      -1.35774750       0.00000000
Si      -1.35826020       1.36351891       1.35795488       0.00000000
Si      -0.00226431      -2.70617625       2.71376679       0.00000000
Si      -2.71298547      -2.71342530      -0.00069128       0.00000000
Si      -2.71309950       2.71537914      -0.00069128       0.00000000
Si      -2.71384884       0.00068418      -2.71476915       0.00000000
Si       0.00117288      -2.71399545      -2.71501110       0.00000000
Si       2.71665072      -2.71270854       0.00038021       0.00000000
