10
Lattice="16.28999089631971 0.0 0.0 0.0 16.28999089631971 0.0 0.0 0.0 34.56409401068381" Properties=species:S:1:pos:R:3:initial_magmoms:R:1 pbc="T T T"
Si       1.21870607       1.41657840       1.43330465       0.00000000
Si      -1.25662689       1.40550120      -1.53475032       0.00000000
Si       1.45386688      -1.29567402      -1.52662776       0.00000000
Si      -1.42143282      -1.55219265       1.36721807       0.00000000
Si       2.73721589      -0.01554066       2.60793148       0.00000000
Si       2.71823804       2.63265948      -0.06301038       0.00000000
Si      -2.58675426       2.78496761      -0.16476713       0.00000000
Si      -2.68159464      -2.72108160      -0.21875627       0.00000000
Si      -2.62242936       0.05364297      -2.91078224       0.00000000
Si       2.97158012      -2.58600492      -0.16998631       0.00000000
