10
Lattice="16.28999089631971 0.0 0.0 0.0 16.28999089631971 0.0 0.0 0.0 34.56409401068381" Properties=species:S:1:pos:R:3:initial_magmoms:R:1 pbc="T T T"
Si      -2.07568809       0.76736881       0.86939114       0.00000000
Si       1.56726157       1.71441566      -0.60082798       0.00000000
Si       1.00208328      -1.35218403       1.72523315       0.00000000
Si      -0.70833807      -0.69439383      -2.24663280       0.00000000
Si      -2.51691903      -1.95023880       0.56239269       0.00000000
Si      -0.80084898      -2.83061556       1.90430982       0.00000000
Si      -1.44663345       3.08396483       1.13021194       0.00000000
Si       3.01781114      -2.17012122       0.85853801       0.00000000
Si       3.42019043       0.63209991      -1.62572307       0.00000000
Si      -2.24231850       0.25248818       3.16648755       0.00000000
