10
Lattice="16.28999089631971 0.0 0.0 0.0 16.28999089631971 0.0 0.0 0.0 34.56409401068381" Properties=species:S:1:pos:R:3:initial_magmoms:R:1 pbc="T T T"
Si      -1.16079282       0.81467919       1.84202529       0.00000000
Si       1.80293226       1.47843153      -0.17907667       0.00000000
Si      -1.71607005       0.88037676      -1.34191714       0.00000000
Si       0.46358082      -2.20208220      -0.67946134       0.00000000
Si       0.80084898       2.83061556      -1.90430982       0.00000000
Si      -1.73121975      -0.87835680      -2.94237384       0.00000000
Si      -1.44146952       3.08310374       1.26217773       0.00000000
Si       0.30356415      -2.11250349      -3.04485644       0.00000000
Si      -2.90763468      -0.57285414       2.51343319       0.00000000
Si      -1.43070183      -3.62138103      -0.17109236       0.00000000
