10
Lattice="16.28999089631971 0.0 0.0 0.0 16.28999089631971 0.0 0.0 0.0 34.56409401068381" Properties=species:S:1:pos:R:3:initial_magmoms:R:1 pbc="T T T"
Si       0.58872060       1.24009254       1.90776624       0.00000000
Si       1.92360465      -1.29295359      -0.47442702       0.00000000
Si      -1.93226116      -1.35593073       0.21917104       0.00000000
Si       0.11948715       1.80090837      -1.62752040       0.00000000
Si      -0.97168221       0.01946655      -2.95329610       0.00000000
Si      -2.76885528      -1.04848956      -1.86850140       0.00000000
Si      -1.41679017       0.73767636       3.13195800       0.00000000
Si      -1.11511566      -3.46206483       0.64185558       0.00000000
Si      -3.12817522      -0.32075010       1.94295250       0.00000000
Si       2.44169181       0.02265939       2.89218675       0.00000000
