10
Lattice="16.28999089631971 0.0 0.0 0.0 16.28999089631971 0.0 0.0 0.0 34.56409401068381" Properties=species:S:1:pos:R:3:initial_magmoms:R:1 pbc="T T T"
Si       2.14681023       0.57746421       0.67832072       0.00000000
Si      -0.58147155       2.03967090      -1.06104915       0.00000000
Si      -1.31365166       0.11378565       2.03807294       0.00000000
Si       0.45507744      -2.04731091      -1.29055486       0.00000000
Si      -2.29285660       0.98124444      -2.25005465       0.00000000
Si       1.78243551       2.55940335       1.90500111       0.00000000
Si       1.42403922       2.54208708      -2.28524092       0.00000000
Si       2.80176597      -1.21306743       2.17539616       0.00000000
Si       3.27701043       1.32465393      -1.30082041       0.00000000
Si      -1.57638004       3.45227454       0.53723001       0.00000000
