10
Lattice="16.28999089631971 0.0 0.0 0.0 16.28999089631971 0.0 0.0 0.0 34.56409401068381" Properties=species:S:1:pos:R:3:initial_magmoms:R:1 pbc="T T T"
Si       1.25186044       1.57354884      -1.18689605       0.00000000
Si      -1.30652726       1.37065689       1.39425066       0.00000000
Si      -2.00067331      -0.74937258      -1.01978859       0.00000000
Si       1.40062072      -1.36045935       1.37428988       0.00000000
Si       2.41934845      -0.07467336      -2.32651189       0.00000000
Si      -2.61060349       2.75537205      -0.03374494       0.00000000
Si      -2.66651077       0.00972513       2.75435889       0.00000000
Si       0.05178265      -2.70443322       2.75155920       0.00000000
Si       0.04978713       2.72082096       2.75083335       0.00000000
Si      -2.74424665      -2.75802732      -0.10370617       0.00000000
