10
Lattice="16.28999089631971 0.0 0.0 0.0 16.28999089631971 0.0 0.0 0.0 34.56409401068381" Properties=species:S:1:pos:R:3:initial_magmoms:R:1 pbc="T T T"
Si       1.35421051       1.34741106      -1.38498402       0.00000000
Si      -1.36053461      -1.36697535      -1.38308299       0.00000000
Si       1.51771324      -1.29033090       1.35664145       0.00000000
Si      -1.45386688       1.29567402       1.52662776       0.00000000
Si      -0.01961479      -2.66435982       2.51979299       0.00000000
Si      -2.71049377       2.70117522      -0.00812257       0.00000000
Si       2.72035507       2.69897607       0.00725846       0.00000000
Si      -2.73018838      -2.72225448      -0.04050914       0.00000000
Si      -0.00290288       2.70884781      -2.74383757       0.00000000
Si       2.71167250      -0.00710244      -2.74394126       0.00000000
