10
Lattice="16.28999089631971 0.0 0.0 0.0 16.28999089631971 0.0 0.0 0.0 34.56409401068381" Properties=species:S:1:pos:R:3:initial_magmoms:R:1 pbc="T T T"
Si       1.07417074      -1.53060840       1.31945046       0.00000000
Si      -1.55391843       0.81940329       1.55016592       0.00000000
Si      -1.36301592      -1.43461143      -1.25927434       0.00000000
Si       1.53732802       1.37402892      -1.16315154       0.00000000
Si       0.42907045       1.84358817       2.49079370       0.00000000
Si       2.16534010       0.25083342       2.64522616       0.00000000
Si      -0.72300233      -2.59856451       2.40424516       0.00000000
Si       0.01961479       2.66435982      -2.51979299       0.00000000
Si      -2.71057359      -0.05789466      -2.56030213       0.00000000
Si       2.74699084      -0.06398712      -2.55266346       0.00000000
