10
Lattice="16.28999089631971 0.0 0.0 0.0 16.28999089631971 0.0 0.0 0.0 34.56409401068381" Properties=species:S:1:pos:R:3:initial_magmoms:R:1 pbc="T T T"
Si      -0.58872060      -1.24009254      -1.90776624       0.00000000
Si      -2.00551077      -0.50241618       1.22419177       0.00000000
Si       0.50218812       2.26813815      -0.69366719       0.00000000
Si       1.85297121      -1.21743315       0.98442051       0.00000000
Si      -0.46923345       0.56081583      -3.53528664       0.00000000
Si       0.72277101      -1.96462287       2.96356164       0.00000000
Si      -1.42403922      -2.54208708       2.28524092       0.00000000
Si       1.33488405      -2.53304613      -2.38219325       0.00000000
Si       1.48805892       3.32760717       1.14566210       0.00000000
Si       3.77359479       0.14941188       0.82705010       0.00000000
