10
Lattice="16.28999089631971 0.0 0.0 0.0 16.28999089631971 0.0 0.0 0.0 34.56409401068381" Properties=species:S:1:pos:R:3:initial_magmoms:R:1 pbc="T T T"
Si      -1.35620926       1.35549364       1.35726360       0.00000000
Si       1.35634775       1.35581337      -1.35715991       0.00000000
Si      -1.35823612      -1.35961227      -1.35677970       0.00000000
Si       1.35711338      -1.36143675       1.35885355       0.00000000
Si       0.00760743       2.68909034       2.73097972       0.00000000
Si       2.71415183       2.71188819      -0.00069128       0.00000000
Si      -0.00089595       2.71339502      -2.71425069       0.00000000
Si       2.71382603      -0.00203625      -2.71452720       0.00000000
Si      -2.71682732       2.71224983       0.00086410       0.00000000
Si      -2.71575218      -0.00206883      -2.71435438       0.00000000
