10
Lattice="10.86 0.0 0.0 0.0 10.86 0.0 0.0 0.0 10.86" Properties=species:S:1:pos:R:3:initial_magmoms:R:1 pbc="T T T"
Si       1.13983302      -1.29017886      -1.22748408       0.00000000
Si      -1.57516698       1.42482114      -1.22748408       0.00000000
Si      -1.57516698      -1.29017886       1.48751592       0.00000000
Si       1.21797072       1.17622488       1.91275008       0.00000000
Si       2.02212114      -1.96507356       0.89504862       0.00000000
Si       2.34845328       2.65371702       0.09250548       0.00000000
Si       2.49733302       0.06732114      -2.58498408       0.00000000
Si      -0.21766698      -2.64767886      -2.58498408       0.00000000
Si      -0.21766698       2.78232114      -2.58498408       0.00000000
Si      -2.93266698       0.06732114      -2.58498408       0.00000000
