10
Lattice="10.86 0.0 0.0 0.0 10.86 0.0 0.0 0.0 10.86" Properties=species:S:1:pos:R:3:initial_magmoms:R:1 pbc="T T T"
Si      -1.28985306       1.67463372       0.86238174       0.00000000
Si      -1.21797072      -1.17622488      -1.91275008       0.00000000
Si       1.13048256       1.47749214      -1.82024460       0.00000000
Si       0.80415042      -3.14129844      -1.01770146       0.00000000
Si      -2.79313770       0.24859626       2.28976584       0.00000000
Si      -0.07813770       2.96359626       2.28976584       0.00000000
Si      -2.79313770      -2.46640374      -0.42523416       0.00000000
Si       2.91465024      -2.48093442      -0.05209542       0.00000000
Si       2.63686230       2.96359626      -0.42523416       0.00000000
Si      -0.07813770      -2.46640374      -3.14023416       0.00000000
