10
Lattice="10.86 0.0 0.0 0.0 10.86 0.0 0.0 0.0 10.86" Properties=species:S:1:pos:R:3:initial_magmoms:R:1 pbc="T T T"
Si      -1.20862026       1.48610412      -1.31998956       0.00000000
Si       1.50637974      -1.22889588      -1.31998956       0.00000000
Si       1.50637974       1.48610412       1.39501044       0.00000000
Si      -1.13048256      -1.47749214       1.82024460       0.00000000
Si      -2.34845328      -2.65371702      -0.09250548       0.00000000
Si      -2.42033562       0.19714158       2.68262634       0.00000000
Si      -2.56612026       0.12860412      -2.67748956       0.00000000
Si       0.14887974      -2.58639588      -2.67748956       0.00000000
Si      -2.56612026       2.84360412       0.03751044       0.00000000
Si       0.14887974       2.84360412      -2.67748956       0.00000000
