10
Lattice="10.86 0.0 0.0 0.0 10.86 0.0 0.0 0.0 10.86" Properties=species:S:1:pos:R:3:initial_magmoms:R:1 pbc="T T T"
Si      -1.10299590      -1.23990792       1.62650220       0.00000000
Si       1.33421616      -1.22537724      -1.46163654       0.00000000
Si       1.33421616       1.48962276       1.25336346       0.00000000
Si      -1.38078384       1.48962276      -1.46163654       0.00000000
Si       0.13446852       2.59109826       2.66149278       0.00000000
Si       2.69171616      -2.58287724      -0.10413654       0.00000000
Si       2.69171616       0.13212276       2.61086346       0.00000000
Si      -3.21349572      -1.90027194       0.66089616       0.00000000
Si      -0.02328384      -2.58287724      -2.81913654       0.00000000
Si       2.69171616       0.13212276      -2.81913654       0.00000000
