10
Lattice="10.86 0.0 0.0 0.0 10.86 0.0 0.0 0.0 10.86" Properties=species:S:1:pos:R:3:initial_magmoms:R:1 pbc="T T T"
Si       0.76922466       1.83705588       0.75119706       0.00000000
Si       1.22813568      -1.13618406      -1.41437382       0.00000000
Si      -1.48686432      -1.13618406       1.30062618       0.00000000
Si      -1.48686432       1.57881594      -1.41437382       0.00000000
Si       2.32759122       0.45656526       2.34693288       0.00000000
Si       2.58563568      -2.49368406      -0.05687382       0.00000000
Si      -0.12936432      -2.49368406       2.65812618       0.00000000
Si      -0.12936432      -2.49368406      -2.77187382       0.00000000
Si      -2.84436432      -2.49368406      -0.05687382       0.00000000
Si       2.61788988       0.34013520      -2.76613974       0.00000000
