10
Lattice="10.86 0.0 0.0 0.0 10.86 0.0 0.0 0.0 10.86" Properties=species:S:1:pos:R:3:initial_magmoms:R:1 pbc="T T T"
Si       1.61554446      -1.59274932      -1.04630670       0.00000000
Si      -1.09945554      -1.59274932       1.66869330       0.00000000
Si       1.61554446       1.12225068       1.66869330       0.00000000
Si      -1.55836656       1.38049062      -1.59573582       0.00000000
Si      -2.32759122      -0.45656526      -2.34693288       0.00000000
Si      -2.47728546       2.65409712       0.08781396       0.00000000
Si       2.65212060      -0.24704328      -2.50695498       0.00000000
Si       2.68602552       2.56874838       0.10646058       0.00000000
Si       0.25804446      -2.95024932      -2.40380670       0.00000000
Si      -2.45695554      -2.95024932       0.31119330       0.00000000
