10
Lattice="10.86 0.0 0.0 0.0 10.86 0.0 0.0 0.0 10.86" Properties=species:S:1:pos:R:3:initial_magmoms:R:1 pbc="T T T"
Si       1.34242632      -1.26259446      -1.38256488       0.00000000
Si       1.34242632       1.45240554       1.33243512       0.00000000
Si      -1.37257368       1.45240554      -1.38256488       0.00000000
Si      -1.15539540      -1.91331480       1.82867196       0.00000000
Si      -2.47541754      -2.55849654      -0.04544910       0.00000000
Si       2.53177008      -2.65170792      -0.01673526       0.00000000
Si      -0.01507368      -2.62009446      -2.74006488       0.00000000
Si       2.69992632       0.09490554      -2.74006488       0.00000000
Si       2.75736486       0.06046848       2.70006750       0.00000000
Si      -2.73007368       0.09490554      -2.74006488       0.00000000
