10
Lattice="16.290000149 0.0 0.0 0.0 16.290000149 0.0 0.0 0.0 29.1751946751" Properties=species:S:1:pos:R:3:initial_magmoms:R:1 pbc="T T T"
Si      -0.68844799       2.04929342       0.76678247       0.00000000
Si       2.05705235      -0.61209838       0.89039777       0.00000000
Si      -1.24343200      -1.78581244       0.84342570       0.00000000
Si      -0.63889381      -0.67710852      -2.14624402       0.00000000
Si      -0.68193199      -2.82203564      -1.16572408       0.00000000
H        0.68747059       2.31014519      -2.13854177       0.00000000
Si      -1.30368871       1.53508328       2.94897033       0.00000000
Si      -3.53152542       0.78685099      -0.77264668       0.00000000
Si       1.53736876      -1.86503071       2.82319606       0.00000000
Si       1.07712739       3.53319841       0.43336834       0.00000000
