10
Lattice="16.290000149 0.0 0.0 0.0 16.290000149 0.0 0.0 0.0 29.1751946751" Properties=species:S:1:pos:R:3:initial_magmoms:R:1 pbc="T T T"
Si       1.32905224       1.38191329      -1.37391827       0.00000000
Si       1.34899120      -1.36270738       1.37654987       0.00000000
Si      -1.36135531       1.34741107       1.39301635       0.00000000
Si      -1.38644191      -1.38002365      -1.34427627       0.00000000
Si       2.52555275      -0.09019773      -2.80627445       0.00000000
Si      -2.64688067      -2.74820448       0.08089406       0.00000000
Si      -2.83074591       0.04100193      -2.57024713       0.00000000
Si       2.71598285       0.04272867       2.69508778       0.00000000
Si      -0.06465501       2.81026938      -2.59673820       0.00000000
Si       2.63661797       2.82960561      -0.00441129       0.00000000
