10
Lattice="16.290000149 0.0 0.0 0.0 16.290000149 0.0 0.0 0.0 29.1751946751" Properties=species:S:1:pos:R:3:initial_magmoms:R:1 pbc="T T T"
Si      -1.35301483      -1.31360932       1.40454639       0.00000000
Si       1.34338744       1.36839259       1.36693956       0.00000000
Si      -1.38232054       1.34180731      -1.36978123       0.00000000
Si       1.42658047      -1.37585341      -1.29320509       0.00000000
Si      -2.56044593      -0.18767709      -2.75831627       0.00000000
Si      -2.67234194      -2.67296096       0.02902932       0.00000000
Si       2.68701923      -0.00767259      -2.71837542       0.00000000
Si       2.71210583       2.71976213       0.01891720       0.00000000
Si      -0.00169416      -2.68192046       2.76069696       0.00000000
Si       2.80186374      -2.64023435       0.12579177       0.00000000
