10
Lattice="16.290000149 0.0 0.0 0.0 16.290000149 0.0 0.0 0.0 29.1751946751" Properties=species:S:1:pos:R:3:initial_magmoms:R:1 pbc="T T T"
Si       1.31204548       1.35966115       1.34632437       0.00000000
Si      -1.37528326       1.26438094      -1.41899686       0.00000000
Si       1.28720323      -1.44951679      -1.32802277       0.00000000
Si      -1.42658047      -1.39013974       1.28280997       0.00000000
Si      -2.18593883      -0.59215780      -2.60315529       0.00000000
Si      -0.55286632      -2.32857407      -2.51523730       0.00000000
Si       2.62058861       2.64987803      -0.12334105       0.00000000
Si       2.62990649      -0.03116277       2.68809157       0.00000000
Si      -0.10562436       2.69063561       2.64984289       0.00000000
Si       2.53772138      -2.81919630       0.08581300       0.00000000
