10
Lattice="16.290000149 0.0 0.0 0.0 16.290000149 0.0 0.0 0.0 29.1751946751" Properties=species:S:1:pos:R:3:initial_magmoms:R:1 pbc="T T T"
Si      -1.33211476       1.36608430      -1.37222611       0.00000000
Si       1.37054287       1.37205133       1.33009713       0.00000000
Si       1.36973978      -1.34008057      -1.37984083       0.00000000
Si      -1.37872045      -1.32695083       1.38935195       0.00000000
Si      -2.63640620      -2.69472440      -0.06631522       0.00000000
Si       0.06004852      -2.67649589       2.67618226       0.00000000
Si      -0.02583594       2.70936911       2.67813700       0.00000000
Si      -2.70296714       2.70585047      -0.00656442       0.00000000
Si      -2.66408291       0.01140300      -2.75562631       0.00000000
Si       2.77640247       0.03347595       2.66293672       0.00000000
