10
Lattice="16.290000149 0.0 0.0 0.0 16.290000149 0.0 0.0 0.0 29.1751946751" Properties=species:S:1:pos:R:3:initial_magmoms:R:1 pbc="T T T"
Si       1.26043876       1.36818082      -1.42517033       0.00000000
Si       1.37528326      -1.26438094       1.41899686       0.00000000
Si      -0.81065557      -1.85653874      -1.18415843       0.00000000
Si      -1.42658047       1.37585341       1.29320509       0.00000000
Si      -2.68213223      -2.66087378       0.01550662       0.00000000
Si      -0.05129721      -2.65452068       2.70180683       0.00000000
Si       2.66248649      -2.71389773       0.09097409       0.00000000
Si       2.64688067       2.74820448      -0.08089406       0.00000000
Si      -0.08319303       2.74424601       2.66014465       0.00000000
Si       0.82241695      -3.59295501      -1.09624043       0.00000000
