10
Lattice="16.290000149 0.0 0.0 0.0 16.290000149 0.0 0.0 0.0 29.1751946751" Properties=species:S:1:pos:R:3:initial_magmoms:R:1 pbc="T T T"
H       -0.14571405       0.79619005       1.27974074       0.00000000
Si       1.08209584       1.16354584      -1.70686559       0.00000000
Si      -2.20980368       0.07820829      -0.80713176       0.00000000
Si       0.86037265      -2.07992351       0.79006427       0.00000000
H       -1.45253044      -1.87222601       1.71022074       0.00000000
H       -1.56480112       2.83744110       0.82904233       0.00000000
Si      -2.73168642      -1.91840816       0.88686757       0.00000000
Si       1.95739013      -0.61686973      -2.99092426       0.00000000
Si       0.71612470      -1.66221533       3.14864536       0.00000000
Si      -2.75517660       2.46298286      -0.06625687       0.00000000
