10
Lattice="16.290000149 0.0 0.0 0.0 16.290000149 0.0 0.0 0.0 29.1751946751" Properties=species:S:1:pos:R:3:initial_magmoms:R:1 pbc="T T T"
Si      -1.31595834       0.26163369       1.90799938       0.00000000
Si       2.20980368      -0.07820829       0.80713176       0.00000000
Si      -1.29139139      -0.15757317      -2.02537119       0.00000000
Si      -0.54537291       2.38477457       0.74087489       0.00000000
Si      -0.52188273      -1.99661645       1.69399933       0.00000000
H        2.06408963       0.71798176       2.08687250       0.00000000
H       -2.42978873       0.80767450      -1.73784965       0.00000000
H        0.22297752      -1.62520444      -2.65768518       0.00000000
H        0.64500256       2.75923281       1.63617409       0.00000000
H        0.75727324      -1.95043430       2.51735250       0.00000000
