10
Lattice="16.290000149 0.0 0.0 0.0 16.290000149 0.0 0.0 0.0 29.1751946751" Properties=species:S:1:pos:R:3:initial_magmoms:R:1 pbc="T T T"
Si      -1.34661286      -1.35684298      -1.36201479       0.00000000
Si      -1.37047771       1.36391284       1.33537784       0.00000000
Si       1.34578207      -1.35918874       1.36849168       0.00000000
Si       1.35132067       1.37547874      -1.34707709       0.00000000
Si      -0.00584811       2.71928972       2.68289255       0.00000000
Si      -2.70764237      -2.70171281       0.00959864       0.00000000
Si      -2.69793353       0.01146816      -2.71816536       0.00000000
Si       0.03036456      -2.70529661      -2.71411001       0.00000000
Si       2.71637381      -2.70462872       0.02917519       0.00000000
Si       2.76899052       0.04450428      -2.65059561       0.00000000
