10
Lattice="16.290000149 0.0 0.0 0.0 16.290000149 0.0 0.0 0.0 29.1751946751" Properties=species:S:1:pos:R:3:initial_magmoms:R:1 pbc="T T T"
H       -0.91497673       0.74855809       0.96184782       0.00000000
Si       1.15535197       1.63577665      -1.17692735       0.00000000
Si       1.39188440      -1.14008824       1.49517038       0.00000000
Si      -1.58667859      -1.13770990      -1.33902473       0.00000000
Si      -1.97267015       2.45074907       1.76977023       0.00000000
Si      -0.61196644       2.79438663      -2.20646162       0.00000000
Si       2.57988316       0.43614846      -2.55948148       0.00000000
Si      -0.05828562      -2.35336745       2.89307941       0.00000000
Si      -2.22466016       2.96746788      -0.52865453       0.00000000
Si       2.73038973      -2.60895755       0.22549508       0.00000000
