10
Lattice="16.290000149 0.0 0.0 0.0 16.290000149 0.0 0.0 0.0 29.1751946751" Properties=species:S:1:pos:R:3:initial_magmoms:R:1 pbc="T T T"
Si      -1.39535254       1.28293525      -1.35970995       0.00000000
Si       1.43855362      -1.37072206      -1.23233105       0.00000000
Si      -1.37560906      -1.31934340       1.35682160       0.00000000
Si       0.87863374       1.88906987       1.06915418       0.00000000
Si      -2.43452423       0.14488326       2.83562470       0.00000000
Si       0.05548374      -2.72103275      -2.57269784       0.00000000
Si      -2.57906540       2.73408104       0.05239865       0.00000000
Si      -0.01120752       2.61856865      -2.70031014       0.00000000
Si       2.77996998      -0.03792312      -2.60537406       0.00000000
Si      -2.74559808      -0.06011010      -2.67201020       0.00000000
