10
Lattice="16.290000149 0.0 0.0 0.0 16.290000149 0.0 0.0 0.0 29.1751946751" Properties=species:S:1:pos:R:3:initial_magmoms:R:1 pbc="T T T"
Si      -1.36809937      -1.34864911      -1.33896638       0.00000000
Si      -1.36508572       1.34697124       1.35037389       0.00000000
Si       1.32561505      -1.38308617       1.35997252       0.00000000
Si       1.38460766       1.33219621      -1.36685787       0.00000000
Si       0.07418466      -2.68120696      -2.62147877       0.00000000
Si       2.69567737      -0.01405827       2.68493482       0.00000000
Si      -0.00602730       2.71252937       2.68108369       0.00000000
Si      -2.69526197       2.71336016      -0.02462386       0.00000000
Si       0.05268186       2.74093913      -2.67612391       0.00000000
Si      -2.72082098      -0.03042972       2.70620353       0.00000000
