10
Lattice="16.290000149 0.0 0.0 0.0 16.290000149 0.0 0.0 0.0 29.1751946751" Properties=species:S:1:pos:R:3:initial_magmoms:R:1 pbc="T T T"
Si      -1.30443805      -1.35620767       1.43227741       0.00000000
Si       1.37565305      -1.44922357      -1.27916891       0.00000000
Si       1.38894406       1.28614438       1.43586596       0.00000000
Si      -1.30008862       1.52671510      -1.32226067       0.00000000
Si       2.71161713       0.00553860      -2.52716149       0.00000000
Si      -2.53278551       2.72752856       0.27465528       0.00000000
Si      -2.65958687      -2.68986998       0.05184140       0.00000000
Si       2.80083747       2.67550220       0.17847634       0.00000000
Si      -2.64758114      -0.05250267       2.85626031       0.00000000
Si       0.10718494       2.63090018       2.89097879       0.00000000
