10
Lattice="16.290000149 0.0 0.0 0.0 16.290000149 0.0 0.0 0.0 29.1751946751" Properties=species:S:1:pos:R:3:initial_magmoms:R:1 pbc="T T T"
Si       1.52344081      -1.29215539      -1.19020207       0.00000000
Si       1.38756592       1.32076063       1.37637774       0.00000000
Si      -1.21635802      -1.43676172       1.44293511       0.00000000
Si      -1.47198070       1.20692611      -1.45508366       0.00000000
H        0.33954876      -1.82566919      -2.24103423       0.00000000
Si      -2.66848121       2.67903713      -0.02272748       0.00000000
Si      -2.64854225      -0.06558354       2.72774066       0.00000000
Si       2.83773594       2.53403984      -0.02153129       0.00000000
Si      -0.14082705       2.53641818      -2.85572641       0.00000000
Si       0.05789466       2.75805993       2.68766561       0.00000000
