10
Lattice="16.290000149 0.0 0.0 0.0 16.290000149 0.0 0.0 0.0 29.1751946751" Properties=species:S:1:pos:R:3:initial_magmoms:R:1 pbc="T T T"
Si       1.25051815      -1.36967950       1.41383577       0.00000000
Si      -1.28720323       1.44951679       1.32802277       0.00000000
Si       1.90752644       0.79164514      -1.12212175       0.00000000
Si      -1.84006955      -0.87905728      -1.18721453       0.00000000
H        0.69620203      -1.82439857      -1.91995829       0.00000000
Si       1.25501419       1.21477789      -3.25449005       0.00000000
Si       2.67009392       0.05975172       2.64972327       0.00000000
Si      -2.71378370       0.05937705       2.61083274       0.00000000
Si       2.74888866      -2.60576146       0.13453849       0.00000000
Si      -3.47314206       0.85735900      -1.27513252       0.00000000
