10
Lattice="16.290000149 0.0 0.0 0.0 16.290000149 0.0 0.0 0.0 29.1751946751" Properties=species:S:1:pos:R:3:initial_magmoms:R:1 pbc="T T T"
Si       1.39504303       1.43441596      -1.17465169       0.00000000
Si       1.70199551      -1.59756031       0.01697996       0.00000000
Si      -0.95506642       1.26974035       1.75532559       0.00000000
Si      -1.59892867      -0.80539390      -1.56119384       0.00000000
Si      -2.06936759       1.22178259      -2.62553412       0.00000000
Si      -0.16886214       2.71751411      -2.29953049       0.00000000
Si       0.63014608      -3.35580519      -1.04730196       0.00000000
Si      -2.39937041       2.69076593       0.52935473       0.00000000
Si      -0.29906811      -2.31067136      -2.87970842       0.00000000
Si       2.35450775      -2.02069307       2.14934826       0.00000000
