10
Lattice="16.290000149 0.0 0.0 0.0 16.290000149 0.0 0.0 0.0 29.1751946751" Properties=species:S:1:pos:R:3:initial_magmoms:R:1 pbc="T T T"
Si       1.13839734      -0.96524767      -0.28752154       0.00000000
Si      -1.88758259       1.63734050      -0.25974676       0.00000000
H       -1.15322938      -1.80789680       1.92947232       0.00000000
Si      -1.53373121       1.39916440       2.09924278       0.00000000
Si      -0.17873926      -2.66559788      -1.42544166       0.00000000
Si       2.42978873      -0.80767450       1.73784965       0.00000000
Si       2.61694454       0.23718240      -1.67637751       0.00000000
Si      -0.24910180       2.69503391      -1.69178201       0.00000000
Si      -1.08373624      -0.73254502       2.99034075       0.00000000
Si      -2.95799850      -0.05344749      -1.64349707       0.00000000
