10
Lattice="16.290000149 0.0 0.0 0.0 16.290000149 0.0 0.0 0.0 29.1751946751" Properties=species:S:1:pos:R:3:initial_magmoms:R:1 pbc="T T T"
Si       1.38722383       1.35951454      -1.30439378       0.00000000
Si       1.38201103      -1.34547256       1.33666154       0.00000000
Si      -1.31789359       1.36958176       1.39025638       0.00000000
Si      -1.33043689      -1.34658028      -1.41450096       0.00000000
Si       0.01738143       2.72054568      -2.61812362       0.00000000
Si       0.01345554      -2.68951160       2.67942070       0.00000000
Si      -2.67774208      -2.69249267      -0.04481310       0.00000000
Si      -2.66430772       2.73003787       0.03643982       0.00000000
Si       2.71063973       0.00767259      -2.68910687       0.00000000
Si      -2.69391479       0.02234988       2.74080531       0.00000000
