10
Lattice="16.290000149 0.0 0.0 0.0 16.290000149 0.0 0.0 0.0 29.1751946751" Properties=species:S:1:pos:R:3:initial_magmoms:R:1 pbc="T T T"
Si      -1.34774077      -1.35405739       1.35723006       0.00000000
Si      -1.36857568       1.35640315      -1.34097947       0.00000000
Si       1.33057146      -1.34918668      -1.39101493       0.00000000
Si       1.31439875       1.36565587       1.39460348       0.00000000
Si       0.02964065       2.69185736      -2.67463597       0.00000000
Si       2.68144416      -2.70907589      -0.03180096       0.00000000
Si      -2.69174723       0.01101204       2.70812910       0.00000000
Si       2.69041995       2.71288775       0.04405454       0.00000000
Si      -2.71849541      -2.70197345       0.00175051       0.00000000
Si       2.70343566       0.01630629       2.72423380       0.00000000
