10
Lattice="16.290000149 0.0 0.0 0.0 16.290000149 0.0 0.0 0.0 29.1751946751" Properties=species:S:1:pos:R:3:initial_magmoms:R:1 pbc="T T T"
Si       1.38577402      -1.35014779      -1.35466264       0.00000000
Si      -1.35145099      -1.38500839       1.35419584       0.00000000
Si      -1.33131655       1.31520574      -1.44297595       0.00000000
Si       1.40923162       1.36388026       1.31857292       0.00000000
Si      -2.69060303      -2.67283064      -0.07611808       0.00000000
Si       2.69954624      -0.05139495       2.67673659       0.00000000
H       -1.10806210       2.94707280       2.14210114       0.00000000
Si       0.07741008       2.43397037       2.94071375       0.00000000
Si       2.72846099       2.69050529      -0.12285674       0.00000000
Si       0.04202820      -2.67731039      -2.76204486       0.00000000
