10
Lattice="16.290000149 0.0 0.0 0.0 16.290000149 0.0 0.0 0.0 29.1751946751" Properties=species:S:1:pos:R:3:initial_magmoms:R:1 pbc="T T T"
Si      -0.54400455      -0.24695640       1.38456721       0.00000000
H       -0.73441837      -0.92844856      -1.62392051       0.00000000
H        1.22973211       1.74535949       0.44973563       0.00000000
H       -1.65605771       0.84660760      -1.16315666       0.00000000
Si       0.40637034      -0.99483031      -2.61418497       0.00000000
Si       2.13400631       1.82026091      -0.77121710       0.00000000
Si       2.46739745      -0.30169080      -1.70753662       0.00000000
Si       1.11772207      -1.19545795       2.71378908       0.00000000
Si      -2.33536700      -1.83379790       1.23308960       0.00000000
Si      -1.41312493       1.62122968       2.50620757       0.00000000
