10
Lattice="16.290000149 0.0 0.0 0.0 16.290000149 0.0 0.0 0.0 29.1751946751" Properties=species:S:1:pos:R:3:initial_magmoms:R:1 pbc="T T T"
Si       1.35987292      -1.35288451       1.35299965       0.00000000
Si      -1.36260964       1.36249561       1.34570585       0.00000000
Si       1.34975683       1.38766366      -1.33561124       0.00000000
Si      -1.34641738      -1.38798946      -1.33960824       0.00000000
Si      -2.78063787      -0.04166493      -2.60137706       0.00000000
Si       0.00021177      -2.71637381       2.69537954       0.00000000
Si       2.79204087       0.05510581      -2.61812362       0.00000000
Si      -0.00296478       2.70588305       2.70955868       0.00000000
Si      -0.02756268       2.72777681      -2.69447510       0.00000000
Si      -2.72702747       0.01490046       2.69578799       0.00000000
