10
Lattice="16.290000149 0.0 0.0 0.0 16.290000149 0.0 0.0 0.0 29.1751946751" Properties=species:S:1:pos:R:3:initial_magmoms:R:1 pbc="T T T"
Si       1.33679325       1.35044101      -1.37038807       0.00000000
Si      -1.37931430       1.39563208       1.29797524       0.00000000
Si       1.34677902      -1.35281935       1.38655113       0.00000000
Si      -1.37956069      -1.35953083      -1.35714253       0.00000000
Si      -0.11844459      -2.73551457       2.60222314       0.00000000
Si      -2.69195185       0.05903496       2.66387033       0.00000000
Si       2.68552381      -2.68309334      -0.02234820       0.00000000
Si       2.68055536       2.69713695       0.01765099       0.00000000
Si      -0.06906634       2.68901639      -2.70322766       0.00000000
Si       2.68858633      -0.01080027      -2.73126502       0.00000000
