10
Lattice="16.290000149 0.0 0.0 0.0 16.290000149 0.0 0.0 0.0 29.1751946751" Properties=species:S:1:pos:R:3:initial_magmoms:R:1 pbc="T T T"
Si      -1.35966115      -1.36348930       1.34237988       0.00000000
Si      -1.35987292       1.35288451      -1.35299965       0.00000000
Si       1.33196815       1.35468130       1.38340021       0.00000000
Si       1.35084826      -1.36073629      -1.35979747       0.00000000
Si       2.68359833       2.70611111       0.01032802       0.00000000
Si      -2.71238276       0.02150280       2.67962493       0.00000000
Si       0.02767671      -2.70612740       2.68931109       0.00000000
Si      -2.70629030      -0.03510495      -2.69260789       0.00000000
Si       2.66408291      -0.01140300       2.75562631       0.00000000
Si      -0.01011609       2.74054818      -2.68861089       0.00000000
