10
Lattice="16.290000149 0.0 0.0 0.0 16.290000149 0.0 0.0 0.0 29.1751946751" Properties=species:S:1:pos:R:3:initial_magmoms:R:1 pbc="T T T"
Si       1.36037791      -1.34954506      -1.32347436       0.00000000
Si      -1.21655024      -1.52454853       1.28703454       0.00000000
Si       1.54526941       1.30609963       1.19807937       0.00000000
Si      -1.02613480       1.54360783      -1.47649825       0.00000000
H        2.71497287      -0.76896946      -1.04916918       0.00000000
Si       0.13830210       2.48438792       2.67031804       0.00000000
Si      -1.38323278      -3.40596210      -0.11022389       0.00000000
Si       2.32771070       2.80358233      -0.51053673       0.00000000
Si       0.92004292      -3.56026098      -0.72689998       0.00000000
Si       0.33660027      -2.58445739       2.70112705       0.00000000
