10
Lattice="16.290000149 0.0 0.0 0.0 16.290000149 0.0 0.0 0.0 29.1751946751" Properties=species:S:1:pos:R:3:initial_magmoms:R:1 pbc="T T T"
Si       2.23234904      -0.50531580       0.32836682       0.00000000
Si      -1.05178015       0.67451189       2.06831708       0.00000000
Si      -0.05574438       2.06734763      -1.28770557       0.00000000
Si      -0.65049229      -1.77147236      -1.58742234       0.00000000
Si      -2.36312516       1.98166549      -0.92998851       0.00000000
H       -0.66451798      -2.89803990       1.52968463       0.00000000
Si       2.79384906      -1.54153900      -1.68078297       0.00000000
Si      -3.11932326       1.39967591       1.22311169       0.00000000
Si       3.47578104       1.28049664      -0.51505889       0.00000000
Si       1.17217954      -3.22726080      -1.75500466       0.00000000
