10
Lattice="16.290000149 0.0 0.0 0.0 16.290000149 0.0 0.0 0.0 29.1751946751" Properties=species:S:1:pos:R:3:initial_magmoms:R:1 pbc="T T T"
Si       1.28967931       1.43946326      -1.28070352       0.00000000
Si      -1.03029364       1.62383934       1.31632643       0.00000000
Si       1.52664994      -0.99658963       1.50587767       0.00000000
Si      -1.57516156      -1.31004181      -1.20648183       0.00000000
Si       2.47963124       2.58793857       0.41145777       0.00000000
Si      -1.54997722       0.37090701       3.24912473       0.00000000
Si       2.59243949       0.02632464      -2.61905723       0.00000000
H        0.67144123      -2.26325117      -2.84055530       0.00000000
Si       3.05245281       0.84991447       1.93093108       0.00000000
Si       2.52617177      -2.76319128       0.24116216       0.00000000
