10
Lattice="16.290000149 0.0 0.0 0.0 16.290000149 0.0 0.0 0.0 29.1751946751" Properties=species:S:1:pos:R:3:initial_magmoms:R:1 pbc="T T T"
Si       1.38657223       1.27873243       1.37369012       0.00000000
Si      -1.63503057       1.17928198      -1.21077116       0.00000000
Si       1.25064847      -1.33947784      -1.49003613       0.00000000
Si      -1.33705389      -1.40516075       1.35142361       0.00000000
Si      -2.96851044      -0.79395832      -1.70158546       0.00000000
Si      -2.68045599      -2.61923377      -0.13344792       0.00000000
Si      -0.03021795       2.64249866       2.68041791       0.00000000
Si       2.60662808      -2.72472830      -0.08968513       0.00000000
Si       2.58905117      -0.11753235       2.81600379       0.00000000
Si       3.25804890       2.08306748       0.17402508       0.00000000
