10
Lattice="16.290000149 0.0 0.0 0.0 16.290000149 0.0 0.0 0.0 29.1751946751" Properties=species:S:1:pos:R:3:initial_magmoms:R:1 pbc="T T T"
Si       1.36936999      -1.34770429       1.34179638       0.00000000
Si       1.37999107       1.34361550      -1.33514443       0.00000000
Si      -1.35048988       1.37657017       1.34891513       0.00000000
Si      -1.38082186      -1.34382727      -1.35664655       0.00000000
Si      -0.05422941       2.68994003      -2.59691325       0.00000000
Si      -0.00558747      -2.69026094       2.68417626       0.00000000
Si      -2.72736956       0.02137248       2.68155049       0.00000000
Si       2.72505638      -2.70016526      -0.02374861       0.00000000
Si       2.72662022       0.01523115       2.69984334       0.00000000
Si      -0.04393413      -2.78480811      -2.64455635       0.00000000
