10
Lattice="16.290000149 0.0 0.0 0.0 16.290000149 0.0 0.0 0.0 29.1751946751" Properties=species:S:1:pos:R:3:initial_magmoms:R:1 pbc="T T T"
Si       0.92921419      -1.04513383       1.83240645       0.00000000
Si      -0.76815496      -2.04721319      -0.88004057       0.00000000
Si      -1.29986056       1.50527746       1.31851457       0.00000000
Si       1.99376570       0.59512258      -1.17161747       0.00000000
H       -0.25648605       2.67988421      -1.44160472       0.00000000
Si      -0.15291423      -1.53300304      -3.06222843       0.00000000
Si       2.26334891      -2.59211369       0.67572668       0.00000000
Si      -1.00944244      -2.07208802       2.73438677       0.00000000
Si       2.00106362       0.71311105       2.89668838       0.00000000
Si       0.29906811       2.31067136       2.87970842       0.00000000
