10
Lattice="16.290000149 0.0 0.0 0.0 16.290000149 0.0 0.0 0.0 29.1751946751" Properties=species:S:1:pos:R:3:initial_magmoms:R:1 pbc="T T T"
H       -0.88808194       0.85035430      -0.88570056       0.00000000
Si       1.02995155      -1.48815667      -1.47203445       0.00000000
Si      -1.38864106      -1.23095386       1.43162680       0.00000000
Si       1.89473879       1.30324888       0.63181802       0.00000000
Si       1.94872385       0.34713990      -2.64023842       0.00000000
Si       0.01847286       1.84101437      -2.95676010       0.00000000
H       -2.77340511       0.42626043      -2.12232036       0.00000000
Si       2.14672880       0.78653008       2.93024277       0.00000000
Si       0.00506619      -2.65930994       2.65444674       0.00000000
Si       2.53272035      -2.80192890      -0.17855219       0.00000000
