10
Lattice="16.290000149 0.0 0.0 0.0 16.290000149 0.0 0.0 0.0 29.1751946751" Properties=species:S:1:pos:R:3:initial_magmoms:R:1 pbc="T T T"
Si      -2.05705235       0.61209838      -0.89039777       0.00000000
Si       1.03029364      -1.62383934      -1.31632643       0.00000000
Si      -0.51968358      -1.25293233       1.93279830       0.00000000
Si       1.51531210       1.85029641       0.07066232       0.00000000
Si       2.31997295      -0.18437609      -2.59702995       0.00000000
Si      -3.30048435      -1.17371406      -0.04697206       0.00000000
Si       2.55694358      -2.62042897       0.18955124       0.00000000
Si       0.77758687       3.17516212      -1.71911917       0.00000000
Si      -2.13877928       0.27559422       3.00924628       0.00000000
Si       0.89008561       2.92182004       2.11788573       0.00000000
