10
Lattice="16.290000149 0.0 0.0 0.0 16.290000149 0.0 0.0 0.0 29.1751946751" Properties=species:S:1:pos:R:3:initial_magmoms:R:1 pbc="T T T"
Si       0.96119146      -1.45891612      -1.51250044       0.00000000
Si      -1.66172663       0.94850155      -1.32922187       0.00000000
Si      -1.26931681      -1.48566430       1.31638478       0.00000000
Si       1.49677408       1.28360314       1.28989371       0.00000000
H       -1.11772207       1.19545795      -2.71378908       0.00000000
Si      -0.93931399      -2.95464765      -1.83850407       0.00000000
Si      -2.66170457      -2.49911408      -0.31672591       0.00000000
Si      -2.57860928      -0.07245792       2.62760702       0.00000000
H        0.11201004       2.94081744      -2.26405346       0.00000000
Si       0.14920011       2.63648765       2.63046940       0.00000000
