10
Lattice="16.290000149 0.0 0.0 0.0 16.290000149 0.0 0.0 0.0 29.1751946751" Properties=species:S:1:pos:R:3:initial_magmoms:R:1 pbc="T T T"
Si      -0.71902432      -0.07995132      -1.32534157       0.00000000
H       -2.11294334       0.75668680       0.29458194       0.00000000
H        1.15018804       1.62728956      -1.12846735       0.00000000
H        1.80094097       1.20435229      -1.08362508       0.00000000
Si      -1.51381342       0.85256974       1.69577902       0.00000000
Si       0.25648605      -2.67988421       1.44160472       0.00000000
Si       2.25025175      -2.08476164       0.26998725       0.00000000
Si       0.89046028      -0.86941360      -2.84927869       0.00000000
Si       0.38669202       2.34830126       2.02178264       0.00000000
Si      -1.04337451      -1.17460675       2.76011929       0.00000000
