10
Lattice="16.290000149 0.0 0.0 0.0 16.290000149 0.0 0.0 0.0 29.1751946751" Properties=species:S:1:pos:R:3:initial_magmoms:R:1 pbc="T T T"
Si      -1.35514882      -1.33366231      -1.38043601       0.00000000
Si      -1.34314309       1.30370500       1.42398290       0.00000000
Si       1.34832331      -1.38373777       1.36324015       0.00000000
Si       1.30443805       1.35620767      -1.43227741       0.00000000
Si       2.69338211       2.64235205       0.00358855       0.00000000
Si      -2.68933241       2.64833048       0.05823369       0.00000000
Si       2.68009110      -0.09301590      -2.71144631       0.00000000
Si       0.01340667       2.65165364       2.79235788       0.00000000
Si      -2.69459408      -2.75186973      -0.02182305       0.00000000
Si       2.71255381      -0.05393619       2.74232242       0.00000000
