10
Lattice="16.290000149 0.0 0.0 0.0 16.290000149 0.0 0.0 0.0 29.1751946751" Properties=species:S:1:pos:R:3:initial_magmoms:R:1 pbc="T T T"
Si      -1.19037547      -0.37445823      -0.89529920       0.00000000
H        1.41908707      -2.04125105       0.45069841       0.00000000
Si      -0.33844104       1.10166013      -2.53663730       0.00000000
Si       0.09480780       2.92873026      -1.07213005       0.00000000
Si       2.00181296       1.17884215       2.16582058       0.00000000
Si      -1.96096090      -2.49759911       0.27182529       0.00000000
Si       0.60435901      -0.57171385       3.08387643       0.00000000
Si      -1.44137179      -1.61122762       2.36835478       0.00000000
Si      -0.64500256      -2.75923281      -1.63617409       0.00000000
H        3.12507363       0.62742565      -0.75715465       0.00000000
