10
Lattice="16.290000149 0.0 0.0 0.0 16.290000149 0.0 0.0 0.0 29.1751946751" Properties=species:S:1:pos:R:3:initial_magmoms:R:1 pbc="T T T"
Si       1.31569444      -1.26381079       1.47217157       0.00000000
Si      -0.85804318      -1.93657151      -1.04199791       0.00000000
Si      -1.43218423       1.37117818       1.28480555       0.00000000
Si       1.21635802       1.43676172      -1.44293511       0.00000000
Si       2.57093669      -2.66906765       0.10939823       0.00000000
Si       2.60392394       2.75752236      -0.06655737       0.00000000
Si       2.73979884       0.14460633      -2.63313717       0.00000000
Si      -0.06519258       2.77661424       2.60334347       0.00000000
Si      -0.09547569      -2.66846492       2.72984711       0.00000000
Si      -1.51055542      -1.51343875      -3.17436621       0.00000000
