10
Lattice="16.290000149 0.0 0.0 0.0 16.290000149 0.0 0.0 0.0 29.1751946751" Properties=species:S:1:pos:R:3:initial_magmoms:R:1 pbc="T T T"
Si       1.37754757       1.36329382       1.30681532       0.00000000
Si      -1.31786101       1.39082392      -1.34176720       0.00000000
Si       1.32739066      -1.35860230      -1.36639107       0.00000000
Si      -1.37047771      -1.35830908       1.33800360       0.00000000
Si      -2.62990649       0.03116277      -2.68809157       0.00000000
Si      -0.00646713       2.67833666       2.66535826       0.00000000
Si       2.73856080       0.04605183      -2.62406661       0.00000000
Si       2.70772382      -0.00309510       2.68181307       0.00000000
Si      -0.09218511      -2.78803353      -2.60227857       0.00000000
Si      -0.00765630      -2.72388350       2.67378989       0.00000000
