10
Lattice="16.290000149 0.0 0.0 0.0 16.290000149 0.0 0.0 0.0 29.1751946751" Properties=species:S:1:pos:R:3:initial_magmoms:R:1 pbc="T T T"
Si      -1.37132479       1.35694072       1.33234362       0.00000000
Si      -1.37300266      -1.34765542      -1.34308009       0.00000000
Si       1.35009892       1.36461331      -1.35641315       0.00000000
Si       1.36909306      -1.34444629       1.36356107       0.00000000
Si      -0.00412137       2.71497287       2.66162384       0.00000000
Si      -0.01343925      -2.70471017      -2.68341771       0.00000000
Si       2.71909424      -2.69399624      -0.00986122       0.00000000
Si       2.72069066       0.01917333      -2.69572964       0.00000000
Si      -2.70332552       0.02208924      -2.71530619       0.00000000
Si      -2.71777475      -2.70254686       0.02249408       0.00000000
