10
Lattice="16.290000149 0.0 0.0 0.0 16.290000149 0.0 0.0 0.0 29.1751946751" Properties=species:S:1:pos:R:3:initial_magmoms:R:1 pbc="T T T"
Si      -1.36381510      -1.34998489       1.34970286       0.00000000
Si      -1.38986281       1.34841779      -1.33283959       0.00000000
Si       1.32025564      -1.36816453      -1.38389618       0.00000000
Si       1.36164853       1.34277168       1.37741929       0.00000000
Si      -0.06361245       2.70492194       2.67591968       0.00000000
Si       0.00959481      -2.70213635       2.69505861       0.00000000
Si       2.68960934      -2.71011845      -0.03045890       0.00000000
Si      -0.04509072       2.70330923      -2.69841376       0.00000000
Si       2.69700500       2.70651836       0.00822740       0.00000000
Si       2.69713532      -0.01296684      -2.71653155       0.00000000
