10
Lattice="16.290000149 0.0 0.0 0.0 16.290000149 0.0 0.0 0.0 29.1751946751" Properties=species:S:1:pos:R:3:initial_magmoms:R:1 pbc="T T T"
Si       1.34949619       1.39590121      -1.31035719       0.00000000
Si      -1.32341590       1.35184195       1.38471309       0.00000000
Si      -1.33747417      -1.32524038      -1.40431590       0.00000000
Si       1.38451969      -1.35638686       1.34001669       0.00000000
Si       2.66975183      -0.09326025      -2.51813731       0.00000000
Si       0.02129103      -2.71829603       2.66996794       0.00000000
Si       2.71111214       2.67738044       0.09974999       0.00000000
Si      -0.03324789       2.72042677      -2.67628437       0.00000000
Si      -2.71063973      -0.00767259       2.68910687       0.00000000
Si      -2.69325830       2.71287309       0.07098325       0.00000000
