10
Lattice="16.290000149 0.0 0.0 0.0 16.290000149 0.0 0.0 0.0 29.1751946751" Properties=species:S:1:pos:R:3:initial_magmoms:R:1 pbc="T T T"
H        1.19037547       0.37445823       0.89529920       0.00000000
Si       0.85193443       1.47611836      -1.64133810       0.00000000
Si      -0.77058543      -2.12314088       1.16712449       0.00000000
Si       0.54537291      -2.38477457      -0.74087489       0.00000000
Si      -2.19654362       1.40815648       1.02413686       0.00000000
H        2.60946254      -1.66679282       1.34599761       0.00000000
Si      -3.41814702      -0.17793567      -0.37948176       0.00000000
H       -1.88441581      -1.57710007      -2.47872454       0.00000000
Si      -0.25099632      -1.23676939       3.26365398       0.00000000
Si       1.28518327       3.30318849      -0.17683085       0.00000000
