10
Lattice="16.290000149 0.0 0.0 0.0 16.290000149 0.0 0.0 0.0 29.1751946751" Properties=species:S:1:pos:R:3:initial_magmoms:R:1 pbc="T T T"
Si       1.29809147      -1.34842105       1.42608352       0.00000000
Si      -1.35960709      -1.38792430      -1.32820074       0.00000000
Si       1.38004646       1.35252613      -1.35098073       0.00000000
Si      -1.34842431       1.33621984       1.39845461       0.00000000
Si      -2.65884731      -2.67718333       0.14383371       0.00000000
Si      -2.81203847      -0.00511506      -2.55296666       0.00000000
Si       0.07321052      -2.69513328      -2.67997503       0.00000000
Si       0.00356262       2.67608864      -2.71213193       0.00000000
Si       2.65410366      -2.73846143       0.13181353       0.00000000
Si       2.69937357       2.71187777       0.02453634       0.00000000
