10
Lattice="16.290000149 0.0 0.0 0.0 16.290000149 0.0 0.0 0.0 29.1751946751" Properties=species:S:1:pos:R:3:initial_magmoms:R:1 pbc="T T T"
H       -1.44088309       0.28711125       0.44515512       0.00000000
Si       0.44999496      -2.13170942       0.89109797       0.00000000
Si      -0.35385138       0.23817609      -2.35898954       0.00000000
Si       1.22160340       1.58609215       1.40361862       0.00000000
H        0.17717004       2.69449634      -0.99043951       0.00000000
H        1.53373121      -1.39916440      -2.09924278       0.00000000
H        0.38050182      -3.20706120      -0.16977046       0.00000000
Si      -0.78514543       2.95629294       1.49534543       0.00000000
Si       3.41814702       0.17793567       0.37948176       0.00000000
Si      -2.66224214       2.25087077       0.22006849       0.00000000
