10
Lattice="16.290000149 0.0 0.0 0.0 16.290000149 0.0 0.0 0.0 29.1751946751" Properties=species:S:1:pos:R:3:initial_magmoms:R:1 pbc="T T T"
Si       1.34032492       1.36287028       1.36501983       0.00000000
Si      -1.35087270       1.35988921      -1.35921397       0.00000000
Si      -1.35876032      -1.35190711       1.36256912       0.00000000
Si       1.36868581      -1.35360127      -1.35203687       0.00000000
Si      -2.68144416       2.70907589       0.03180096       0.00000000
Si       2.70689303       0.00550602       2.69348315       0.00000000
Si       0.00853596      -2.70767495      -2.70599931       0.00000000
Si      -2.71059086      -2.70479162       0.00122536       0.00000000
Si       2.70888041       2.70690932       0.02226067       0.00000000
Si       2.71697654      -2.71428869       0.01374152       0.00000000
