10
Lattice="16.290000149 0.0 0.0 0.0 16.290000149 0.0 0.0 0.0 29.1751946751" Properties=species:S:1:pos:R:3:initial_magmoms:R:1 pbc="T T T"
H        1.98213464      -0.09233172      -1.05625875       0.00000000
Si       1.02139930      -1.33846786       1.61615991       0.00000000
Si       0.76077559       1.87142780      -1.28134538       0.00000000
Si      -0.77019121      -2.04107186      -1.00838225       0.00000000
Si      -1.06984576       1.10889289       1.86829194       0.00000000
H       -1.21950199       1.24804207      -2.36199459       0.00000000
H       -3.02044296       0.04368978      -1.27836951       0.00000000
H       -1.87025492       1.67097935      -2.40683686       0.00000000
H        2.30356892      -0.79855210       2.55032047       0.00000000
Si      -1.01784808       3.42059052      -0.65174467       0.00000000
