10
Lattice="16.290000149 0.0 0.0 0.0 16.290000149 0.0 0.0 0.0 29.1751946751" Properties=species:S:1:pos:R:3:initial_magmoms:R:1 pbc="T T T"
Si       1.34641412      -1.36045610       1.35381656       0.00000000
Si      -1.31436518      -1.38148649      -1.36487396       0.00000000
Si       1.32567695       1.38054819      -1.36029345       0.00000000
Si      -1.37983143       1.34990670       1.33890803       0.00000000
Si      -2.63126182       0.05178591      -2.64254326       0.00000000
Si       2.68168915      -0.00949218      -2.65456344       0.00000000
Si      -0.00976911       2.71893460       2.66387033       0.00000000
Si       2.66430772      -2.73003787      -0.03643982       0.00000000
Si       2.70280099       0.00302994       2.70372364       0.00000000
Si      -0.02960708      -2.70768799       2.70436550       0.00000000
