10
Lattice="16.290000149 0.0 0.0 0.0 16.290000149 0.0 0.0 0.0 29.1751946751" Properties=species:S:1:pos:R:3:initial_magmoms:R:1 pbc="T T T"
Si       1.43944957       1.33004593       1.21053718       0.00000000
Si      -1.24085818       1.38924379      -1.37234281       0.00000000
Si       1.52102989      -1.31698787      -1.19717494       0.00000000
Si      -1.16181910      -1.43992198       1.50363118       0.00000000
H        2.08282313       0.48736422       2.28964010       0.00000000
Si       2.50328432      -2.17789809       0.78939324       0.00000000
Si       0.75645874      -2.49988949       2.28193785       0.00000000
Si       0.00759114       2.55594989       2.49669646       0.00000000
Si      -2.41632830      -2.75856492       0.03290962       0.00000000
Si      -2.53412129      -0.04732245      -2.68572255       0.00000000
