10
Lattice="16.290000149 0.0 0.0 0.0 16.290000149 0.0 0.0 0.0 29.1751946751" Properties=species:S:1:pos:R:3:initial_magmoms:R:1 pbc="T T T"
Si       0.61315561      -1.30583573       0.43978688       0.00000000
Si      -1.51436891       1.46763127       0.63231399       0.00000000
H        2.01487754       0.34389819      -1.41280880       0.00000000
Si      -0.03582171       2.67006134      -0.75654197       0.00000000
Si       1.10829016       1.24372522      -2.22037819       0.00000000
Si      -2.83150551      -0.23271894      -0.50560612       0.00000000
Si      -1.61441721      -1.51751777      -2.11225492       0.00000000
Si      -0.22297752       1.62520444       2.65768518       0.00000000
Si      -0.23359860      -2.96758191      -0.95618783       0.00000000
Si       2.92053639      -1.22015359       0.08206982       0.00000000
