10
Lattice="16.290000149 0.0 0.0 0.0 16.290000149 0.0 0.0 0.0 29.1751946751" Properties=species:S:1:pos:R:3:initial_magmoms:R:1 pbc="T T T"
Si       2.06754311      -0.72516402       0.84520539       0.00000000
Si       0.75619810       0.58198958      -2.15310019       0.00000000
Si      -1.28630239      -1.98513851      -0.12075613       0.00000000
Si      -0.60181777       1.51641331       1.75879744       0.00000000
H        0.67733821       1.56259546       2.58215060       0.00000000
H        0.14304249       1.88782531      -2.59288708       0.00000000
Si      -0.07993503       3.51302976       0.06479811       0.00000000
Si       1.28510182      -2.22264672       2.55382149       0.00000000
Si       3.11932326      -1.39967591      -1.22311169       0.00000000
Si      -1.96272022       0.13134790       3.09440867       0.00000000
