10
Lattice="10.86 0.0 0.0 0.0 10.86 0.0 0.0 0.0 10.86" Properties=species:S:1:pos:R:3:initial_magmoms:R:1 pbc="T T T"
Si       1.09226622       1.28800686      -1.31057394       0.00000000
Si      -1.58526678      -1.22325954      -1.38538848       0.00000000
Si      -1.52724180       1.38749532       1.34983284       0.00000000
Si       0.24307938      -2.61420834       2.55013434       0.00000000
Si       2.55882234      -0.04061640      -2.67205956       0.00000000
Si       2.55882234       2.67438360       0.04294044       0.00000000
Si      -0.15617766       2.67438360      -2.67205956       0.00000000
Si      -0.15617766      -2.75561640      -2.67205956       0.00000000
Si      -0.15617766       2.67438360       2.75794044       0.00000000
Si      -2.87117766      -0.04061640      -2.67205956       0.00000000
