10
Lattice="10.86 0.0 0.0 0.0 10.86 0.0 0.0 0.0 10.86" Properties=species:S:1:pos:R:3:initial_magmoms:R:1 pbc="T T T"
Si       1.02660666      -1.35075594      -1.34011314       0.00000000
Si       1.02660666       1.36424406       1.37488686       0.00000000
Si      -1.68839334       1.36424406      -1.34011314       0.00000000
Si       2.38410666       0.00674406      -2.69761314       0.00000000
Si       2.38410666      -2.70825594       0.01738686       0.00000000
Si       2.38410666       2.72174406       0.01738686       0.00000000
Si       2.38410666       0.00674406       2.73238686       0.00000000
Si      -0.27921060      -2.56085316       2.62959696       0.00000000
Si      -0.47285526       2.49305418       2.85797190       0.00000000
Si      -0.33089334      -2.70825594      -2.69761314       0.00000000
