10
Lattice="10.86 0.0 0.0 0.0 10.86 0.0 0.0 0.0 10.86" Properties=species:S:1:pos:R:3:initial_magmoms:R:1 pbc="T T T"
Si      -1.14921606       1.51983528      -1.13346906       0.00000000
Si      -1.14921606      -1.19516472       1.58153094       0.00000000
Si       1.96504098      -1.05375666      -1.34127516       0.00000000
Si       1.56578394       1.51983528       1.58153094       0.00000000
Si       0.37040202      -2.33671362      -2.60252298       0.00000000
Si      -2.50671606       0.16233528      -2.49096906       0.00000000
Si      -2.50671606      -2.55266472       0.22403094       0.00000000
Si      -2.50671606       2.87733528       0.22403094       0.00000000
Si      -2.50671606       0.16233528       2.93903094       0.00000000
Si       0.19471980       2.94794700      -2.54157666       0.00000000
