10
Lattice="10.86 0.0 0.0 0.0 10.86 0.0 0.0 0.0 10.86" Properties=species:S:1:pos:R:3:initial_magmoms:R:1 pbc="T T T"
Si      -1.42843752       1.21515798      -1.25212542       0.00000000
Si       1.28656248       1.21515798       1.46287458       0.00000000
Si      -1.42843752      -1.49984202       1.46287458       0.00000000
Si       2.50210056      -0.37103190      -2.48404038       0.00000000
Si      -0.07093752       2.57265798      -2.60962542       0.00000000
Si       2.64406248       2.57265798       0.10537458       0.00000000
Si      -2.78593752       2.57265798       0.10537458       0.00000000
Si      -0.07093752       2.57265798       2.82037458       0.00000000
Si      -2.79950166      -0.07173030      -2.66023302       0.00000000
Si       2.64406248      -0.14234202       2.82037458       0.00000000
