10
Lattice="16.290000149 0.0 0.0 0.0 16.290000149 0.0 0.0 0.0 29.1751946751" Properties=species:S:1:pos:R:3:initial_magmoms:R:1 pbc="T T T"
Si      -1.36158337       1.37037997       1.26200222       0.00000000
Si      -1.42032511      -1.31023729      -1.31349644       0.00000000
Si       1.33727869       1.44759457      -1.25619636       0.00000000
Si       1.29741706      -1.30266244       1.46091870       0.00000000
Si      -2.77653279       0.04425993       2.50098521       0.00000000
Si       2.68123628       0.08193870      -2.60677447       0.00000000
Si      -0.04191417      -2.65826738      -2.63428668       0.00000000
Si       2.68058468      -2.64678293       0.12519076       0.00000000
Si      -0.05072706       2.78958108      -2.60330262       0.00000000
Si      -2.78322798       0.08343738      -2.61815279       0.00000000
