10
Lattice="16.290000149 0.0 0.0 0.0 16.290000149 0.0 0.0 0.0 29.1751946751" Properties=species:S:1:pos:R:3:initial_magmoms:R:1 pbc="T T T"
Si       1.22344417      -1.53298675       1.24160876       0.00000000
Si      -1.38702835      -1.35198856      -1.29359896       0.00000000
Si      -1.05740020       1.46621404       1.47854052       0.00000000
Si       1.37539729       1.31939227      -1.35658820       0.00000000
Si       0.75730582       2.22099491       2.86331196       0.00000000
Si      -2.37257336       0.10904526       2.86328278       0.00000000
Si      -0.02036250       2.60159447      -2.71653155       0.00000000
Si      -0.02674818      -2.70070283      -2.62684700       0.00000000
Si      -2.50525541       2.81761617       0.19544463       0.00000000
Si      -2.74277990       0.00531054      -2.59694243       0.00000000
