10
Lattice="16.290000149 0.0 0.0 0.0 16.290000149 0.0 0.0 0.0 29.1751946751" Properties=species:S:1:pos:R:3:initial_magmoms:R:1 pbc="T T T"
Si      -1.07528662      -1.16999668       1.70663219       0.00000000
Si       0.87504994      -1.78235408      -1.28251238       0.00000000
Si       1.87287761       1.46209267       0.15932574       0.00000000
Si      -1.60005268       1.30078909      -1.21141243       0.00000000
H        0.47850246       2.30218427       1.78867284       0.00000000
H       -1.23395122      -0.37638045       2.98217170       0.00000000
H        2.59201595       1.54131094       1.48414215       0.00000000
Si       1.99596485      -0.34124292      -2.83308645       0.00000000
Si      -3.28709397      -1.10048725       0.90130929       0.00000000
Si      -0.28487952       2.65795787      -2.59615470       0.00000000
