10
Lattice="16.290000149 0.0 0.0 0.0 16.290000149 0.0 0.0 0.0 29.1751946751" Properties=species:S:1:pos:R:3:initial_magmoms:R:1 pbc="T T T"
Si       1.13055859      -0.06138072      -1.00505628       0.00000000
H        0.67263040       0.92515798       1.61843557       0.00000000
H       -0.92212804       1.76860532       0.44311286       0.00000000
Si      -2.28053486       1.19534392       0.17227952       0.00000000
Si      -2.73354347      -1.01364526       0.78031976       0.00000000
Si       0.13683600       0.66810178       3.00393639       0.00000000
Si       1.35475786      -2.19620153      -1.91721874       0.00000000
Si       3.19264455       0.63345295      -0.10322184       0.00000000
Si       0.90321535       1.45091773      -2.84306437       0.00000000
Si      -1.66122164      -0.92708020       2.88218831       0.00000000
