10
Lattice="16.290000149 0.0 0.0 0.0 16.290000149 0.0 0.0 0.0 29.1751946751" Properties=species:S:1:pos:R:3:initial_magmoms:R:1 pbc="T T T"
Si      -1.34355034       1.35728281      -1.36890013       0.00000000
Si       1.32784027      -1.34928442      -1.39512863       0.00000000
Si       1.34828585       1.37860642       1.35113244       0.00000000
Si      -1.34420194      -1.37143882       1.36306510       0.00000000
Si       2.66724317      -2.70848945      -0.03288044       0.00000000
Si      -2.68750793       2.72293868      -0.01832202       0.00000000
Si      -2.70980894      -2.71168229      -0.00866503       0.00000000
Si      -2.72736957      -0.02731833       2.69879303       0.00000000
Si       2.71927343       0.03619638       2.70742889       0.00000000
Si       2.70842429       2.72886824      -0.00230484       0.00000000
