10
Lattice="16.290000149 0.0 0.0 0.0 16.290000149 0.0 0.0 0.0 29.1751946751" Properties=species:S:1:pos:R:3:initial_magmoms:R:1 pbc="T T T"
Si      -1.37883285       1.45269171      -1.15638802       0.00000000
Si       1.52811604      -1.26299629      -1.21395068       0.00000000
Si       0.85169008       1.66200518       1.39086906       0.00000000
Si      -0.92113435      -1.73006318       1.28082022       0.00000000
H        0.23872995       2.96787513       0.94918578       0.00000000
Si       2.56046222      -2.08849205       0.73976624       0.00000000
Si       0.11551239      -2.65676870      -2.51332632       0.00000000
Si      -2.61091670       0.09208362      -2.60096861       0.00000000
Si       0.10137267       1.06914366       3.54364832       0.00000000
Si       0.73148617      -3.38230902       1.37762352       0.00000000
