10
Lattice="16.290000149 0.0 0.0 0.0 16.290000149 0.0 0.0 0.0 29.1751946751" Properties=species:S:1:pos:R:3:initial_magmoms:R:1 pbc="T T T"
Si       1.03281859       1.10758969      -0.21513789       0.00000000
H       -0.52183386       1.54235350       1.81694360       0.00000000
Si      -2.21749256      -0.78594364      -1.12394520       0.00000000
Si      -0.97137271       0.25690959       2.47837444       0.00000000
Si       1.03869928      -1.10661229       2.39712152       0.00000000
Si      -0.54066510      -2.46593135      -1.37514363       0.00000000
Si      -0.18137286      -2.69542487       0.98591735       0.00000000
Si       2.19977556       0.94781737       1.80235600       0.00000000
Si       2.51866371       0.03036456      -1.64189243       0.00000000
Si      -0.22908627       2.75030589      -1.36677034       0.00000000
