10
Lattice="16.290000149 0.0 0.0 0.0 16.290000149 0.0 0.0 0.0 29.1751946751" Properties=species:S:1:pos:R:3:initial_magmoms:R:1 pbc="T T T"
Si      -1.33838641       1.15828417       1.55408676       0.00000000
Si      -1.30912957      -1.44340804      -1.37313637       0.00000000
Si       1.42729723      -1.36726858       1.33374694       0.00000000
Si       0.84225817       1.99650242      -1.08972416       0.00000000
H        1.91839187       0.28292472      -1.89268824       0.00000000
Si      -0.90181441       3.54214650      -0.64535531       0.00000000
Si      -2.73890289       2.52561791       0.29701515       0.00000000
Si      -2.70407486      -0.01410714      -2.59691909       0.00000000
Si       0.08239482       2.61589709       2.78304516       0.00000000
Si      -2.63656910      -2.82424620       0.00254991       0.00000000
