10
Lattice="16.290000149 0.0 0.0 0.0 16.290000149 0.0 0.0 0.0 29.1751946751" Properties=species:S:1:pos:R:3:initial_magmoms:R:1 pbc="T T T"
Si       0.43297191      -0.25506882       2.28402796       0.00000000
Si      -1.71295868       1.63742194       0.10179225       0.00000000
Si      -0.04323366      -2.29237769      -0.66951237       0.00000000
Si       1.86789287       0.89612920      -1.27793188       0.00000000
H       -0.92149273       0.15785010      -2.54410615       0.00000000
Si       2.15827841      -2.67933035       0.13910733       0.00000000
Si      -0.32479002       3.37325178      -0.81448391       0.00000000
Si       2.06778746      -1.98974207       2.36864361       0.00000000
Si       3.45973539       1.71040115       0.28416640       0.00000000
Si      -3.76758381       0.64550755      -0.63202224       0.00000000
