10
Lattice="16.290000149 0.0 0.0 0.0 16.290000149 0.0 0.0 0.0 29.1751946751" Properties=species:S:1:pos:R:3:initial_magmoms:R:1 pbc="T T T"
Si      -1.37098759       1.34241004      -1.35629645       0.00000000
Si      -1.33152181      -1.39706299       1.34255493       0.00000000
Si       1.29881800      -1.35824392      -1.41733096       0.00000000
Si       1.35653347       1.38188071       1.35043224       0.00000000
Si       2.77674456       0.01029528       2.60388612       0.00000000
Si      -2.73549827      -0.07814313       2.65625560       0.00000000
Si       2.60951141      -2.78492214      -0.12014345       0.00000000
Si      -0.01084914       2.69267186      -2.70973373       0.00000000
Si      -2.70943968       2.70578531       0.01630893       0.00000000
Si       0.03927519      -2.63518445       2.78722305       0.00000000
