10
Lattice="16.290000149 0.0 0.0 0.0 16.290000149 0.0 0.0 0.0 29.1751946751" Properties=species:S:1:pos:R:3:initial_magmoms:R:1 pbc="T T T"
Si       1.37854126       1.31861035      -1.36364860       0.00000000
Si      -1.37287234      -1.32626665      -1.36472808       0.00000000
Si       1.35628912      -1.36995643       1.33902473       0.00000000
Si      -1.36894645       1.37968156       1.32227817       0.00000000
Si      -0.05605389       2.63855648      -2.64586923       0.00000000
Si       0.04484637      -2.65857689      -2.66699207       0.00000000
Si       2.72591975      -0.00891063       2.66812990       0.00000000
Si      -2.72929178       0.01762578       2.66640857       0.00000000
Si      -0.01539405       2.73279414       2.68426379       0.00000000
Si      -0.00004887      -2.72517041       2.69666324       0.00000000
