10
Lattice="16.290000149 0.0 0.0 0.0 16.290000149 0.0 0.0 0.0 29.1751946751" Properties=species:S:1:pos:R:3:initial_magmoms:R:1 pbc="T T T"
Si       1.74723284       0.32258436      -1.49193193       0.00000000
Si      -1.91795204       1.05935011      -0.77909440       0.00000000
Si       0.63765577       0.67860720       2.14618567       0.00000000
Si      -0.04404816      -2.14496459       0.98101592       0.00000000
Si       1.86328280      -1.98289538      -1.72635462       0.00000000
Si      -0.60450562      -1.10867623       2.98996148       0.00000000
H        1.32822145       2.98866605       0.00860668       0.00000000
Si      -0.75637729       2.50017782      -2.28161692       0.00000000
Si      -2.89017183       1.46331931       1.37321806       0.00000000
Si       2.15091533      -2.86727949       0.51526311       0.00000000
