10
Lattice="16.290000149 0.0 0.0 0.0 16.290000149 0.0 0.0 0.0 29.1751946751" Properties=species:S:1:pos:R:3:initial_magmoms:R:1 pbc="T T T"
Si       1.36458073      -1.33894027       1.36332767       0.00000000
Si       1.35596332       1.37042884      -1.34442215       0.00000000
Si      -1.35488818       1.35475786       1.36396953       0.00000000
Si      -1.33452568      -1.40255272      -1.34182555       0.00000000
Si       2.70801704      -2.67509495      -0.01922645       0.00000000
Si      -2.76912084      -0.08260659      -2.62404618       0.00000000
Si       0.01285281      -2.73007371       2.68995295       0.00000000
Si       0.00860112       2.71471223      -2.70947115       0.00000000
Si      -2.72562653       2.70207119       0.02243572       0.00000000
Si      -2.71306694      -2.72116307       0.02182305       0.00000000
