10
Lattice="16.290000149 0.0 0.0 0.0 16.290000149 0.0 0.0 0.0 29.1751946751" Properties=species:S:1:pos:R:3:initial_magmoms:R:1 pbc="T T T"
Si       0.90564256       0.07107327      -1.21864788       0.00000000
H       -1.27625635      -1.75782134      -0.42905041       0.00000000
H        1.90653275       0.42787314       1.24359267       0.00000000
Si      -1.81205075      -2.01487754       0.95645041       0.00000000
Si       0.01545921       1.49138209      -2.81105918       0.00000000
Si       1.18599346       2.94357533       0.25003142       0.00000000
Si       1.24375780      -2.04952637      -2.15070783       0.00000000
Si       2.79156846       1.41444442      -0.83336026       0.00000000
Si      -2.66001041      -0.14103882       2.07386036       0.00000000
H       -2.87101479      -0.91437400      -1.60437313       0.00000000
