10
Lattice="16.290000149 0.0 0.0 0.0 16.290000149 0.0 0.0 0.0 29.1751946751" Properties=species:S:1:pos:R:3:initial_magmoms:R:1 pbc="T T T"
Si       0.60949036       0.51774507      -2.18291724       0.00000000
Si      -2.30034350      -0.06072912       0.45020243       0.00000000
Si       0.76714498       2.04646385       0.88050738       0.00000000
Si       1.22419351      -1.86738299       0.95502082       0.00000000
Si       1.69481162       1.00574461       2.71562712       0.00000000
Si       3.03051018      -0.53988318       1.56250673       0.00000000
Si       1.29582064      -1.53229280      -2.94984558       0.00000000
Si      -0.23993541      -0.02643867       3.61705311       0.00000000
Si      -2.44144748       0.36051399       2.80843341       0.00000000
Si      -3.16104195       2.01712556      -0.34169988       0.00000000
