10
Lattice="16.290000149 0.0 0.0 0.0 16.290000149 0.0 0.0 0.0 29.1751946751" Properties=species:S:1:pos:R:3:initial_magmoms:R:1 pbc="T T T"
Si       1.45293769      -1.19044063      -1.35305509       0.00000000
Si      -1.33115691      -1.47080782       1.24058179       0.00000000
Si       1.42877962       1.35839053       1.27925351       0.00000000
Si      -1.36088616       1.25613820      -1.45388456       0.00000000
Si      -2.68978853      -0.02681334       2.54475676       0.00000000
Si       0.09902691      -2.53933409      -2.69724383       0.00000000
Si      -2.52766394       2.82073505      -0.12731763       0.00000000
Si       0.09516618       2.67385691       2.69486897       0.00000000
Si       2.76007989      -0.03572397       2.64996543       0.00000000
Si       2.73310364      -2.68732874      -0.01611375       0.00000000
