10
Lattice="16.290000149 0.0 0.0 0.0 16.290000149 0.0 0.0 0.0 29.1751946751" Properties=species:S:1:pos:R:3:initial_magmoms:R:1 pbc="T T T"
Si      -0.22419927       2.13482081       0.91216246       0.00000000
Si      -1.81470602      -0.75478087      -1.38477144       0.00000000
Si       0.34305111      -1.95064607       1.37070900       0.00000000
Si       2.12478617       0.58544632      -1.00187619       0.00000000
H        2.21004803      -0.23850189       1.57216372       0.00000000
H       -1.35475786       2.19620153       1.91721874       0.00000000
H        2.86099644      -0.66124369       1.61394259       0.00000000
H       -1.05132403      -1.11055447       3.00005609       0.00000000
Si       1.95258458      -2.73957078      -0.15214864       0.00000000
H        1.06218946      -1.87142780       2.69552541       0.00000000
