10
Lattice="16.290000149 0.0 0.0 0.0 16.290000149 0.0 0.0 0.0 29.1751946751" Properties=species:S:1:pos:R:3:initial_magmoms:R:1 pbc="T T T"
Si       1.39295791       1.43436709      -1.17771508       0.00000000
Si       1.70310323      -1.59615937       0.01432502       0.00000000
Si      -0.96226660       1.26838828       1.75325415       0.00000000
Si      -1.59184252      -0.81427195      -1.56209827       0.00000000
Si      -2.06913953       1.21580416      -2.62118702       0.00000000
Si      -0.17335818       2.71625978      -2.30069750       0.00000000
Si       0.63329005      -3.35754822      -1.04648506       0.00000000
Si      -2.41075712       2.69057045       0.53682358       0.00000000
Si      -0.29437659      -2.31682898      -2.88160480       0.00000000
Si       2.35695125      -2.02846340       2.14372037       0.00000000
