10
Lattice="16.290000149 0.0 0.0 0.0 16.290000149 0.0 0.0 0.0 29.1751946751" Properties=species:S:1:pos:R:3:initial_magmoms:R:1 pbc="T T T"
Si       1.71295868      -1.63742194      -0.10179225       0.00000000
Si      -2.05462514      -0.99191440      -0.73381450       0.00000000
Si       1.38816865       1.73582984      -0.91627616       0.00000000
Si      -1.01603989       1.23199642       1.84401818       0.00000000
H        0.79146595      -1.47957184      -2.64589841       0.00000000
H       -0.60821974       0.55825831      -3.11130111       0.00000000
Si      -2.37143143       2.64328058       0.53203885       0.00000000
Si       2.14593059      -1.89249077       2.18223571       0.00000000
Si      -3.48131475       0.94394035      -0.72156091       0.00000000
Si       3.58085154      -0.74129275      -1.37972413       0.00000000
