10
Lattice="16.290000149 0.0 0.0 0.0 16.290000149 0.0 0.0 0.0 29.1751946751" Properties=species:S:1:pos:R:3:initial_magmoms:R:1 pbc="T T T"
Si       1.35871633       1.36342414       1.33333557       0.00000000
Si       1.36542781      -1.34671060      -1.35046141       0.00000000
Si      -1.32993190       1.36523233      -1.37668991       0.00000000
Si      -1.35594703      -1.37720548       1.35582965       0.00000000
Si       2.69643485      -0.01065366       2.68545997       0.00000000
Si      -0.00469152      -2.69519681      -2.68741471       0.00000000
Si      -2.70777269       0.00174303      -2.68321348       0.00000000
Si      -2.71419095       2.68123628      -0.01855542       0.00000000
Si       0.01233153       2.71352306       2.69829705       0.00000000
Si       2.69851997       2.71909424      -0.04598011       0.00000000
