10
Lattice="16.290000149 0.0 0.0 0.0 16.290000149 0.0 0.0 0.0 29.1751946751" Properties=species:S:1:pos:R:3:initial_magmoms:R:1 pbc="T T T"
H       -1.13866124       0.96583411       0.28857185       0.00000000
H        1.51547012      -1.47409840      -0.63578584       0.00000000
Si       1.47845924       1.20241378      -1.38652195       0.00000000
Si       1.29475690       0.14263524       2.02828871       0.00000000
Si      -1.31743373      -1.70087150      -1.13669476       0.00000000
H       -2.28918974      -0.82148842       2.19948875       0.00000000
Si       2.12843024      -2.77996835      -0.19410257       0.00000000
Si       0.04605835       2.41525316      -2.76977628       0.00000000
Si      -2.60796875      -0.35453556      -2.63635812       0.00000000
Si       0.74848804       2.53591319       2.75828125       0.00000000
