10
Lattice="16.290000149 0.0 0.0 0.0 16.290000149 0.0 0.0 0.0 29.1751946751" Properties=species:S:1:pos:R:3:initial_magmoms:R:1 pbc="T T T"
Si      -1.38316762       1.34412049       1.33572794       0.00000000
Si      -1.36560700      -1.34024347      -1.37173013       0.00000000
Si       1.34420194       1.37143882      -1.36306510       0.00000000
Si       1.34045524      -1.36528120       1.37531868       0.00000000
Si      -2.68058468       2.64678293      -0.12519076       0.00000000
Si       2.66061966      -2.70189200      -0.03171344       0.00000000
Si       0.00478926       2.70309746       2.66605846       0.00000000
Si      -2.73259866      -0.04698036       2.68082111       0.00000000
Si       2.73195357       0.01057221       2.68691873       0.00000000
Si      -0.01922220      -2.69034239      -2.73669161       0.00000000
