10
Lattice="16.290000149 0.0 0.0 0.0 16.290000149 0.0 0.0 0.0 29.1751946751" Properties=species:S:1:pos:R:3:initial_magmoms:R:1 pbc="T T T"
Si      -2.23159970       0.50443614      -0.32792919       0.00000000
Si       0.89018335      -1.42030882       1.59241130       0.00000000
Si       0.56045746      -1.03628836      -2.00894555       0.00000000
Si       1.24216138       1.78728343      -0.84377581       0.00000000
H       -0.01545921      -1.49138209       2.81105918       0.00000000
Si       0.60450562       1.10867623      -2.98996148       0.00000000
Si       2.77610925      -0.07693767       1.97769892       0.00000000
Si       3.29958840       1.17692482       0.04647609       0.00000000
Si       1.17053425       1.45219324       3.06109060       0.00000000
Si      -1.06113061      -2.72344367      -2.07949118       0.00000000
