10
Lattice="16.290000149 0.0 0.0 0.0 16.290000149 0.0 0.0 0.0 29.1751946751" Properties=species:S:1:pos:R:3:initial_magmoms:R:1 pbc="T T T"
Si      -1.29096622      -1.43817130       1.28146208       0.00000000
Si       1.30219003      -1.41355711      -1.33876216       0.00000000
Si      -1.43490466       1.62654788      -0.92567058       0.00000000
Si       1.18936549       1.15348791       1.68796006       0.00000000
Si      -0.80319475       2.03462867       2.66955949       0.00000000
Si      -2.32117841       0.18599548       2.59662150       0.00000000
Si      -0.08708634       2.64594351      -2.55918973       0.00000000
Si       2.63053415       2.57177514       0.34420895       0.00000000
Si       1.75500317      -0.58413546       3.20110236       0.00000000
Si       0.23397327      -2.43303419       2.78766068       0.00000000
