10
Lattice="16.290000149 0.0 0.0 0.0 16.290000149 0.0 0.0 0.0 29.1751946751" Properties=species:S:1:pos:R:3:initial_magmoms:R:1 pbc="T T T"
Si      -1.37007046       1.34653141       1.33887886       0.00000000
Si      -1.38432421      -1.35005005      -1.32668363       0.00000000
Si       1.36212094      -1.36467847       1.33753680       0.00000000
Si       1.37103157       1.35742942      -1.33838288       0.00000000
Si       0.00827532       2.68170869       2.68391368       0.00000000
Si      -0.05124834      -2.76843991      -2.61205518       0.00000000
Si      -0.00311139      -2.71282259       2.68586842       0.00000000
Si       2.69985575      -0.00019548      -2.70521158       0.00000000
Si      -2.72033228      -0.01844028       2.69485438       0.00000000
Si      -2.71606430       2.70563870      -0.03002128       0.00000000
