10
Lattice="16.290000149 0.0 0.0 0.0 16.290000149 0.0 0.0 0.0 29.1751946751" Properties=species:S:1:pos:R:3:initial_magmoms:R:1 pbc="T T T"
Si      -1.42021108       1.37158543      -1.25345389       0.00000000
Si      -1.30189681      -1.23602005       1.50042191       0.00000000
Si       1.18299610      -1.45204174      -1.41155427       0.00000000
Si       1.85489345       0.93134818       1.10731534       0.00000000
Si       3.45685206      -0.84509263       1.01815594       0.00000000
Si      -0.04408074       2.69218316      -2.61640228       0.00000000
Si       2.57875589      -2.73424395      -0.05161092       0.00000000
Si       2.56653839      -0.11634318      -2.75209611       0.00000000
Si       0.14595840      -2.58742217       2.78351780       0.00000000
Si      -2.77674456      -0.01029528      -2.60388612       0.00000000
