10
Lattice="16.290000149 0.0 0.0 0.0 16.290000149 0.0 0.0 0.0 29.1751946751" Properties=species:S:1:pos:R:3:initial_magmoms:R:1 pbc="T T T"
Si      -0.56045746       1.03628836       2.00894555       0.00000000
Si      -1.62158806      -1.68715532      -0.07054562       0.00000000
Si       2.19496349      -0.72231490      -0.46575281       0.00000000
Si       0.04404816       2.14496459      -0.98101592       0.00000000
Si       0.68170393       2.82357179       1.16516975       0.00000000
Si       1.90733096       0.16206921      -2.70737054       0.00000000
Si       1.92630881      -2.75227698       0.73098450       0.00000000
Si      -3.44452053      -0.23060124       0.09449846       0.00000000
Si      -0.22009419      -0.80788627      -3.38729845       0.00000000
Si      -2.79205716       1.54072450       1.68101637       0.00000000
