10
Lattice="16.290000149 0.0 0.0 0.0 16.290000149 0.0 0.0 0.0 29.1751946751" Properties=species:S:1:pos:R:3:initial_magmoms:R:1 pbc="T T T"
Si       1.49020921      -1.26519544      -1.28493392       0.00000000
Si      -1.34276842       1.41424894      -1.37105910       0.00000000
Si      -1.39163842      -1.82392616       0.75047353       0.00000000
Si       1.07064397       1.69264505       1.38261248       0.00000000
H        2.95951673       0.05517423       1.63999604       0.00000000
Si      -2.46830969       2.53065152       0.38161155       0.00000000
Si       0.06312375      -2.53736300      -2.68866924       0.00000000
Si      -0.60618349       3.37263276       1.63381090       0.00000000
Si       2.78074424      -2.61153137       0.21472943       0.00000000
Si      -3.14866155      -0.85312360       2.01203813       0.00000000
