10
Lattice="16.290000149 0.0 0.0 0.0 16.290000149 0.0 0.0 0.0 29.1751946751" Properties=species:S:1:pos:R:3:initial_magmoms:R:1 pbc="T T T"
Si      -2.19623900      -0.18788886      -0.66213104       0.00000000
Si       1.32038108      -0.28426050      -1.90972072       0.00000000
Si       0.52743274       0.92750374       2.08322560       0.00000000
Si       0.81066697      -2.25930899      -0.24320442       0.00000000
Si       0.77411221       2.10901745      -1.17972817       0.00000000
H        2.06330282      -2.24632586       0.61568413       0.00000000
H       -2.26356557      -1.24838416      -1.73852068       0.00000000
H        1.97383814       2.47767644      -0.29426101       0.00000000
H        3.37352382       0.43984629       0.17114169       0.00000000
Si      -2.64261758       1.94691566      -1.54576016       0.00000000
