10
Lattice="16.290000149 0.0 0.0 0.0 16.290000149 0.0 0.0 0.0 29.1751946751" Properties=species:S:1:pos:R:3:initial_magmoms:R:1 pbc="T T T"
Si      -1.60042735       0.16298145       1.69604159       0.00000000
Si       0.79713487       1.93610887      -1.04199208       0.00000000
Si       1.76821436      -1.15207768       1.03318117       0.00000000
Si      -1.56484999      -0.78407029      -1.58100380       0.00000000
H        1.72256978       1.87450661       1.33085568       0.00000000
H       -0.24206940       3.05186800      -0.99531177       0.00000000
Si      -2.03157479       2.45396798       1.38526742       0.00000000
Si       1.10565118       1.19263978      -3.22633890       0.00000000
Si       0.62519392      -2.80287372       2.21559346       0.00000000
Si      -2.47678049      -2.62044200      -0.40854025       0.00000000
