10
Lattice="16.290000149 0.0 0.0 0.0 16.290000149 0.0 0.0 0.0 29.1751946751" Properties=species:S:1:pos:R:3:initial_magmoms:R:1 pbc="T T T"
Si      -1.35905842      -1.35599590      -1.35285378       0.00000000
Si      -1.36809937       1.35347095       1.35282460       0.00000000
Si       1.34851879      -1.36107838       1.36501983       0.00000000
Si       1.35521398       1.34350147      -1.37651486       0.00000000
Si       2.68956047       2.69417054       0.01843872       0.00000000
Si       0.02054169      -2.71415837      -2.68890264       0.00000000
Si      -2.69099237      -2.71347419       0.03002128       0.00000000
Si       2.71352306      -0.00588069       2.71238867       0.00000000
Si      -0.02052540       2.69202026      -2.73555378       0.00000000
Si      -2.71878311       2.71345790      -0.00595174       0.00000000
