10
Lattice="16.290000149 0.0 0.0 0.0 16.290000149 0.0 0.0 0.0 29.1751946751" Properties=species:S:1:pos:R:3:initial_magmoms:R:1 pbc="T T T"
Si       1.41494941       1.32612004      -1.23898299       0.00000000
Si      -1.42612435      -1.38945556      -1.17964065       0.00000000
Si       1.29567403      -1.29349117       1.42634609       0.00000000
Si      -1.08204697       1.42063462       1.49814625       0.00000000
H        2.14099472      -0.35849403       2.23435311       0.00000000
Si      -0.53581068      -2.11820501       2.59061141       0.00000000
Si       1.04537818       2.39059010       2.17807416       0.00000000
Si      -2.13776930      -0.34176420       2.67977081       0.00000000
Si       2.64547973       2.46396026       0.38619205       0.00000000
Si       0.00729792      -2.71230131      -2.46165705       0.00000000
