10
Lattice="16.290000149 0.0 0.0 0.0 16.290000149 0.0 0.0 0.0 29.1751946751" Properties=species:S:1:pos:R:3:initial_magmoms:R:1 pbc="T T T"
Si      -1.37357281      -1.34312680       1.34211731       0.00000000
Si      -1.37073835       1.34731333      -1.34153380       0.00000000
Si       1.35488818      -1.35475786      -1.36396953       0.00000000
Si       1.35892810       1.36301689       1.35696748       0.00000000
Si       0.01018125       2.69127092      -2.67437340       0.00000000
Si      -0.01066995      -2.73680148       2.64677366       0.00000000
Si       2.71946891      -2.69369813      -0.00064185       0.00000000
Si      -2.72456769       0.02814912       2.69243284       0.00000000
Si       2.71085150       0.01567098      -2.70839167       0.00000000
Si      -2.72712522      -2.69623937      -0.01986831       0.00000000
