10
Lattice="16.290000149 0.0 0.0 0.0 16.290000149 0.0 0.0 0.0 29.1751946751" Properties=species:S:1:pos:R:3:initial_magmoms:R:1 pbc="T T T"
Si      -1.41780831       1.22227129      -1.37756517       0.00000000
Si      -1.31321673      -1.48836844       1.26874169       0.00000000
Si       1.50410458      -1.33548679      -1.24796895       0.00000000
Si       0.66321478       1.87774832       1.29695410       0.00000000
Si       0.04724100       2.60328863      -2.59399573       0.00000000
Si       0.25213662      -2.56337813       2.63209854       0.00000000
Si      -2.75910249       2.52455906       0.04527990       0.00000000
Si       0.06853203      -2.74494648      -2.56505394       0.00000000
Si      -2.70624143      -0.18790515      -2.69602139       0.00000000
Si      -0.98940574       3.52999416       1.20015081       0.00000000
