10
Lattice="16.290000149 0.0 0.0 0.0 16.290000149 0.0 0.0 0.0 29.1751946751" Properties=species:S:1:pos:R:3:initial_magmoms:R:1 pbc="T T T"
H        0.90811864      -0.89946865       0.80602310       0.00000000
Si       1.34609158       1.30877119      -1.39148173       0.00000000
Si      -1.14279238       1.42830721       1.46331106       0.00000000
Si      -1.31372335      -1.46776159      -1.27883631       0.00000000
H       -1.10578150      -1.24820497       2.21404717       0.00000000
Si      -2.57519327       2.64114659       0.08005673       0.00000000
Si      -0.49282137      -2.55407491       2.65573045       0.00000000
Si      -2.66227310      -0.13250286      -2.65438839       0.00000000
Si      -0.00965997       2.66607029      -2.69482521       0.00000000
Si       2.73311993       2.66075975      -0.09788278       0.00000000
