10
Lattice="16.290000149 0.0 0.0 0.0 16.290000149 0.0 0.0 0.0 29.1751946751" Properties=species:S:1:pos:R:3:initial_magmoms:R:1 pbc="T T T"
Si       1.34451145       1.32502861       1.39870843       0.00000000
Si       1.33217992      -1.43436709      -1.31846498       0.00000000
Si      -1.34271955      -1.41688792       1.35800903       0.00000000
Si      -1.42729723       1.36726858      -1.33374694       0.00000000
H        0.49109463       1.65019331      -3.22643518       0.00000000
Si      -2.76568365       2.52555275       0.22033982       0.00000000
Si       2.65634516       2.67353111      -0.02961574       0.00000000
Si      -0.06296085      -2.75475306      -2.68491439       0.00000000
Si      -2.73642680      -0.07613946      -2.70688331       0.00000000
Si       0.00245979       2.63888228       2.81434723       0.00000000
