10
Lattice="16.290000149 0.0 0.0 0.0 16.290000149 0.0 0.0 0.0 29.1751946751" Properties=species:S:1:pos:R:3:initial_magmoms:R:1 pbc="T T T"
Si      -0.97163335       1.45590247       1.51042900       0.00000000
Si       1.56631609      -1.28189269       1.12298242       0.00000000
Si       1.61966584       1.02846916      -1.39206524       0.00000000
Si      -1.89578135      -1.50045562      -0.32048951       0.00000000
H       -0.38190276      -2.35111943      -2.02560459       0.00000000
H        0.76595581      -0.71819353      -3.14896629       0.00000000
H       -2.49541625      -1.59024610      -1.72107391       0.00000000
Si       0.17335818      -2.71625978       2.30069750       0.00000000
Si      -2.66201408       2.38461167       0.20002513       0.00000000
H       -2.12621969       2.64166787      -1.18547569       0.00000000
