10
Lattice="16.290000149 0.0 0.0 0.0 16.290000149 0.0 0.0 0.0 29.1751946751" Properties=species:S:1:pos:R:3:initial_magmoms:R:1 pbc="T T T"
Si      -1.19972593      -0.36865899      -0.88546716       0.00000000
H        1.39968568      -2.03783015       0.46540271       0.00000000
Si      -0.35106579       1.12001896      -2.51595209       0.00000000
Si       0.07516206       2.93384532      -1.03061375       0.00000000
Si      -1.97383814      -2.47767644       0.29426101       0.00000000
Si      -1.44640540      -1.55017270       2.37748661       0.00000000
Si       1.99638839       1.17757153       2.19502495       0.00000000
Si       0.60821974      -0.55825831       3.11130111       0.00000000
H        3.11213937       0.64073458      -0.72809616       0.00000000
Si      -0.65345707      -2.76193695      -1.61545970       0.00000000
