10
Lattice="16.290000149 0.0 0.0 0.0 16.290000149 0.0 0.0 0.0 29.1751946751" Properties=species:S:1:pos:R:3:initial_magmoms:R:1 pbc="T T T"
Si      -1.34854974       1.33525873      -1.37555208       0.00000000
Si       1.31372335       1.46776159       1.27883631       0.00000000
Si      -1.40962095      -1.29562679       1.38730968       0.00000000
Si       1.41812596      -1.35545996      -1.33645732       0.00000000
H        2.22184199       0.56829295       2.08485941       0.00000000
H        0.20794185       0.21955662       3.49288348       0.00000000
Si      -0.03078810      -2.74831851       2.54369770       0.00000000
Si      -2.64170480      -2.65623488      -0.05727091       0.00000000
Si      -2.61997611       2.69700500       0.04705959       0.00000000
Si       0.07415208      -2.70190829      -2.72475896       0.00000000
