10
Lattice="16.290000149 0.0 0.0 0.0 16.290000149 0.0 0.0 0.0 29.1751946751" Properties=species:S:1:pos:R:3:initial_magmoms:R:1 pbc="T T T"
Si      -1.66766107      -0.79043968       1.44784821       0.00000000
Si       1.10988332       1.69934024       1.25359976       0.00000000
Si      -0.52328856       0.67236976      -2.23003518       0.00000000
Si       1.42668962      -1.93585475      -0.01225358       0.00000000
H       -2.84394569      -1.34037379       0.40104223       0.00000000
Si       2.46527487       0.28805607       2.56557909       0.00000000
Si       0.89925688      -2.86335849      -2.09547918       0.00000000
Si       3.48131475      -0.94394035       0.72156091       0.00000000
Si      -0.52783347      -2.29074869       2.83343422       0.00000000
Si       1.67336909      -0.75434104      -3.27520735       0.00000000
