10
Lattice="16.290000149 0.0 0.0 0.0 16.290000149 0.0 0.0 0.0 29.1751946751" Properties=species:S:1:pos:R:3:initial_magmoms:R:1 pbc="T T T"
Si       0.09049095      -0.68958829      -2.22953628       0.00000000
Si      -0.98963380      -1.78483179       1.15518600       0.00000000
Si       1.84178000       0.88026274       1.18302205       0.00000000
Si      -1.63481554       1.73467325      -0.08461565       0.00000000
H        2.55378332      -0.94032397      -0.74285589       0.00000000
Si       0.55135135       2.32885100       2.51051091       0.00000000
Si      -2.30990573      -0.46406952       2.55294623       0.00000000
Si      -2.11102112      -0.30263562      -3.03815598       0.00000000
Si      -2.06778746       1.98974207      -2.36864361       0.00000000
Si       2.02523798       0.34259499      -3.13096227       0.00000000
