10
Lattice="16.290000149 0.0 0.0 0.0 16.290000149 0.0 0.0 0.0 29.1751946751" Properties=species:S:1:pos:R:3:initial_magmoms:R:1 pbc="T T T"
Si      -0.73301743       2.18861691       0.40022532       0.00000000
Si       1.90663049       0.54861300       1.27883631       0.00000000
Si      -1.62551395      -1.48376815       0.93594025       0.00000000
Si       0.73111150       0.34767259      -2.26180697       0.00000000
H        1.45165078      -2.16802960      -1.26824571       0.00000000
H        1.73027495       1.93788122       1.88690572       0.00000000
Si       2.53742816       1.67517239      -1.65432106       0.00000000
Si       1.20172960       3.22080019      -0.50120067       0.00000000
H       -0.45488196      -2.59590275      -2.51183839       0.00000000
Si      -0.41462937      -2.90106332       2.38615632       0.00000000
