10
Lattice="16.290000149 0.0 0.0 0.0 16.290000149 0.0 0.0 0.0 29.1751946751" Properties=species:S:1:pos:R:3:initial_magmoms:R:1 pbc="T T T"
Si      -1.02630259       1.48541995       1.47565217       0.00000000
Si       0.91193050       1.83637172      -1.17246355       0.00000000
Si      -1.33916833      -1.45611424      -1.29333638       0.00000000
Si       1.50400684      -1.31233870       1.29073979       0.00000000
H       -1.90226477       2.34277895       0.58589626       0.00000000
H        2.76669363      -1.00854649      -1.31472180       0.00000000
Si       2.31715478      -2.29399040      -0.65329096       0.00000000
Si       0.44005806      -3.00394119      -1.92632140       0.00000000
Si       0.87635314       2.78342346       2.10458184       0.00000000
Si       2.47678049       2.62044200       0.40854025       0.00000000
