10
Lattice="16.290000149 0.0 0.0 0.0 16.290000149 0.0 0.0 0.0 29.1751946751" Properties=species:S:1:pos:R:3:initial_magmoms:R:1 pbc="T T T"
H       -1.18589572       0.51202728      -0.79881683       0.00000000
Si       1.33174009      -1.07095348      -1.62225752       0.00000000
H       -1.75653443       0.63345295       1.53341906       0.00000000
Si       1.29683062       1.67410703       1.17616880       0.00000000
Si      -0.69157567      -1.86214250       1.41899394       0.00000000
H       -0.55508176       2.16883433      -1.90341888       0.00000000
H        1.52591689      -1.07619886       2.54293914       0.00000000
Si      -3.06918264       1.09242370       0.92788789       0.00000000
H       -1.99254395       1.25768575      -2.45418820       0.00000000
Si       2.55873548       0.03139083       2.32780126       0.00000000
