10
Lattice="16.290000149 0.0 0.0 0.0 16.290000149 0.0 0.0 0.0 29.1751946751" Properties=species:S:1:pos:R:3:initial_magmoms:R:1 pbc="T T T"
Si       1.26169309      -1.11157097       1.59398676       0.00000000
Si      -1.80631667      -1.32749981      -0.60748590       0.00000000
Si       1.21730284       1.31525461      -1.50208490       0.00000000
Si      -1.33569856       1.54562779       1.15312039       0.00000000
H        3.05119848      -0.51367095      -0.78659242       0.00000000
Si      -0.63079768      -1.12655940       2.93315737       0.00000000
Si      -0.20074167      -2.85663072      -1.69087758       0.00000000
Si       2.75252133       2.04126734       0.10106287       0.00000000
Si      -3.03051018       0.53988318      -1.56250673       0.00000000
Si      -2.53742816      -1.67517239       1.65432106       0.00000000
