10
Lattice="16.290000149 0.0 0.0 0.0 16.290000149 0.0 0.0 0.0 29.1751946751" Properties=species:S:1:pos:R:3:initial_magmoms:R:1 pbc="T T T"
Si      -1.34021089      -1.34840476       1.37231363       0.00000000
Si       1.32297607      -1.37191123      -1.37315971       0.00000000
Si      -1.36045936       1.32468652      -1.39118998       0.00000000
Si       1.34382727       1.32765130       1.40711964       0.00000000
Si       2.69944850       2.67429674       0.01342059       0.00000000
Si       2.62778879      -2.75156022       0.00145876       0.00000000
Si      -2.73160496       0.00565263       2.68578090       0.00000000
Si      -2.73328283       2.68438025      -0.07054562       0.00000000
Si       2.67748958      -0.02484225      -2.74646530       0.00000000
Si      -0.00661374       2.69933447      -2.73362822       0.00000000
