10
Lattice="16.290000149 0.0 0.0 0.0 16.290000149 0.0 0.0 0.0 29.1751946751" Properties=species:S:1:pos:R:3:initial_magmoms:R:1 pbc="T T T"
Si       1.46747815      -1.21906216      -1.33129331       0.00000000
Si      -1.14302044      -1.65079604       1.18241229       0.00000000
Si      -1.76821436       1.15207768      -1.03318117       0.00000000
Si       1.44459396       1.38868993       1.35807614       0.00000000
H       -0.04564458       3.02658429       0.29767451       0.00000000
H       -2.04955895      -0.91759942       2.15989801       0.00000000
Si      -3.36864171       1.31505913       0.66286042       0.00000000
Si       2.64860741       0.30988467      -2.64616098       0.00000000
Si       2.90450703      -2.40678236       0.11471687       0.00000000
Si      -0.97107949       3.08818655      -2.07517325       0.00000000
