10
Lattice="16.290000149 0.0 0.0 0.0 16.290000149 0.0 0.0 0.0 29.1751946751" Properties=species:S:1:pos:R:3:initial_magmoms:R:1 pbc="T T T"
Si       0.68633029      -2.05003787      -0.76692834       0.00000000
Si      -0.60949036      -0.51774507       2.18291724       0.00000000
Si      -1.82019575       0.88702309      -1.14792721       0.00000000
Si       1.76606408       1.48379095      -0.33178031       0.00000000
H        1.37689597       0.26002098      -2.90450733       0.00000000
Si       0.15765462       1.52871877       3.06342462       0.00000000
Si      -2.84149731      -1.26532576      -1.53989595       0.00000000
Si       2.14984019       2.12718080       1.89241983       0.00000000
Si      -0.69928084       2.32813424      -2.69850128       0.00000000
Si       0.78716539       3.34254513      -1.22894673       0.00000000
