10
Lattice="16.290000149 0.0 0.0 0.0 16.290000149 0.0 0.0 0.0 29.1751946751" Properties=species:S:1:pos:R:3:initial_magmoms:R:1 pbc="T T T"
Si      -1.37813401       1.36655182       1.31183345       0.00000000
Si      -1.37834578      -1.33517728      -1.34503482       0.00000000
Si       1.35633799       1.35521398      -1.35763851       0.00000000
Si       1.35498592      -1.35078310       1.36942529       0.00000000
Si      -0.00135207       2.70648578       2.64508150       0.00000000
Si      -0.00827532      -2.68170869      -2.68391368       0.00000000
Si      -2.73162126       0.01508454       2.67358566       0.00000000
Si       2.71458191      -2.70322778       0.01674656       0.00000000
Si       0.00004887       2.72517041      -2.69666324       0.00000000
Si      -2.72860760      -2.70014897       0.01094070       0.00000000
