10
Lattice="16.290000149 0.0 0.0 0.0 16.290000149 0.0 0.0 0.0 29.1751946751" Properties=species:S:1:pos:R:3:initial_magmoms:R:1 pbc="T T T"
Si       1.71947468       0.94604176       1.27576970       0.00000000
Si      -0.86030749      -1.73025866       1.38600526       0.00000000
Si       0.73836055      -0.62618761      -2.17779437       0.00000000
Si      -1.70711057       1.66750958       0.13038657       0.00000000
H       -2.90222643      -0.94449421      -0.67171247       0.00000000
Si       0.46032282       2.34351200       2.64454438       0.00000000
Si      -0.83338012      -2.31877401      -2.61895249       0.00000000
Si      -2.36273420      -0.49573728       2.66512748       0.00000000
Si       2.97606900      -1.16975233      -1.88677180       0.00000000
Si      -2.36095859       2.09981360      -1.99900878       0.00000000
