10
Lattice="16.290000149 0.0 0.0 0.0 16.290000149 0.0 0.0 0.0 29.1751946751" Properties=species:S:1:pos:R:3:initial_magmoms:R:1 pbc="T T T"
Si       0.95475365       0.88659140      -1.21864788       0.00000000
Si       0.05530455       1.72848305       0.78659242       0.00000000
Si       0.32346076      -0.07329751       2.38696855       0.00000000
Si       1.49023854      -1.63789436       1.06040163       0.00000000
Si      -0.92543491       0.06160226      -2.37284776       0.00000000
Si       2.84493450      -0.21346429      -0.26724478       0.00000000
Si      -1.72256978      -1.87450661      -1.33085568       0.00000000
Si       0.04564458      -3.02658429      -0.29767451       0.00000000
Si      -2.18240390       2.27204777       0.49556986       0.00000000
H       -1.96463918       1.17736139      -2.32616745       0.00000000
