10
Lattice="16.290000149 0.0 0.0 0.0 16.290000149 0.0 0.0 0.0 29.1751946751" Properties=species:S:1:pos:R:3:initial_magmoms:R:1 pbc="T T T"
H       -1.44171388       0.28492839       0.44264605       0.00000000
Si       0.44637858      -2.13480452       0.88362912       0.00000000
Si      -0.35929224       0.22949352      -2.36106098       0.00000000
Si       1.22007214       1.58881258       1.41120417       0.00000000
H        0.18137286       2.69542487      -0.98591735       0.00000000
H        1.52958052      -1.40797729      -2.10367741       0.00000000
H        0.37905201      -3.19529982      -0.19276051       0.00000000
Si      -0.78999985       2.95233447       1.49245708       0.00000000
Si       3.41672979       0.16210179       0.36603199       0.00000000
Si      -2.66709656       2.24238368       0.21942664       0.00000000
