10
Lattice="16.290000149 0.0 0.0 0.0 16.290000149 0.0 0.0 0.0 29.1751946751" Properties=species:S:1:pos:R:3:initial_magmoms:R:1 pbc="T T T"
Si      -1.37083772      -1.37227939      -1.32974702       0.00000000
Si       1.34760492       1.35344489      -1.37625228       0.00000000
Si       1.40626521      -1.33777717       1.33292712       0.00000000
Si      -1.39582658       1.33722005       1.34876925       0.00000000
Si      -0.01643661       2.69938986       2.68213400       0.00000000
Si       0.06918200      -2.68815302       2.70258581       0.00000000
Si      -2.70347376      -0.00651926      -2.70176890       0.00000000
Si      -2.70063930       2.71686903      -0.02584922       0.00000000
Si      -0.00120546      -2.71219706      -2.70990878       0.00000000
Si       2.70307955       2.72172345      -0.03880301       0.00000000
