10
Lattice="16.290000149 0.0 0.0 0.0 16.290000149 0.0 0.0 0.0 29.1751946751" Properties=species:S:1:pos:R:3:initial_magmoms:R:1 pbc="T T T"
Si      -1.41494941      -1.32612004       1.23898299       0.00000000
Si       1.36158337      -1.37037997      -1.26200222       0.00000000
Si       1.23053032       1.13784022       1.62517504       0.00000000
Si      -1.39538512       1.45010323      -1.19367391       0.00000000
Si      -0.36957123       1.06447006       3.41705715       0.00000000
Si       2.69886206       0.07721460      -2.51819858       0.00000000
Si      -2.49699638       0.09451458       2.73712924       0.00000000
Si      -0.05874174      -2.68061726      -2.57549866       0.00000000
Si       2.52734465       2.72803745       0.34905203       0.00000000
Si      -0.11927538      -2.61961121       2.66532908       0.00000000
