10
Lattice="16.290000149 0.0 0.0 0.0 16.290000149 0.0 0.0 0.0 29.1751946751" Properties=species:S:1:pos:R:3:initial_magmoms:R:1 pbc="T T T"
Si      -0.44953884      -1.28544391       0.66143084       0.00000000
H        0.52183386      -1.54235350      -1.81694360       0.00000000
Si       1.55465245      -0.43476381      -2.03208148       0.00000000
Si       2.72160942      -0.59453614      -0.01458760       0.00000000
Si      -1.26268678      -0.30379221       2.60546159       0.00000000
Si      -2.32663556      -1.99539470      -0.61159961       0.00000000
Si       1.56053314      -2.64896579       0.58017792       0.00000000
Si      -2.76669363       1.00854649       1.31472180       0.00000000
Si      -1.85476313       2.84491821       0.14225825       0.00000000
Si       0.29274759       1.20795238      -3.18371394       0.00000000
