10
Lattice="10.86 0.0 0.0 0.0 10.86 0.0 0.0 0.0 10.86" Properties=species:S:1:pos:R:3:initial_magmoms:R:1 pbc="T T T"
Si       1.48228140       1.40773836      -1.22416092       0.00000000
Si      -1.23271860       1.40773836       1.49083908       0.00000000
Si       1.48228140      -1.30726164       1.49083908       0.00000000
Si       0.18530418      -2.70781068      -2.63366946       0.00000000
Si       0.12478140       2.76523836      -2.58166092       0.00000000
Si      -2.59021860       2.76523836       0.13333908       0.00000000
Si       2.83978140       0.05023836      -2.58166092       0.00000000
Si      -2.59021860       0.05023836       2.84833908       0.00000000
Si      -2.73223482       0.25712136      -2.76596598       0.00000000
Si       2.83978140      -2.66476164       0.13333908       0.00000000
