10
Lattice="16.28999089631971 0.0 0.0 0.0 16.28999089631971 0.0 0.0 0.0 34.3005442915855" Properties=species:S:1:pos:R:3:initial_magmoms:R:1 pbc="T T T"
Si       0.56949840      -2.26651241      -0.31745171       0.00000000
Si      -1.25015976       0.03266145       2.02465936       0.00000000
Si      -0.93369393       1.24506099      -1.82379526       0.00000000
Si       1.94776272       1.08594027       1.57000539       0.00000000
Si      -1.57651362       2.79049329      -0.04057757       0.00000000
Si       0.09409104       1.95655932       2.63949696       0.00000000
Si       2.01087018      -2.08843664      -2.20631514       0.00000000
Si      -0.67455261      -2.15009429       2.87497033       0.00000000
Si       1.15836561      -3.16352519       1.76682202       0.00000000
Si       3.22043526       2.46495393       0.07580425       0.00000000
