10
Lattice="16.28999089631971 0.0 0.0 0.0 16.28999089631971 0.0 0.0 0.0 34.3005442915855" Properties=species:S:1:pos:R:3:initial_magmoms:R:1 pbc="T T T"
Si       0.82943793       0.01332033       2.16882463       0.00000000
Si       1.83291822      -1.01343089      -1.10814830       0.00000000
Si      -2.02616649      -1.19130140       0.34609269       0.00000000
Si      -0.57560715       2.18275574      -0.85031097       0.00000000
Si       1.24405101      -0.11641811      -3.19242204       0.00000000
Si      -1.10123658       0.52389129       3.39297744       0.00000000
Si       1.71246996      -2.17036298       2.36385763       0.00000000
Si       0.67455261       2.15009429      -2.87497033       0.00000000
Si       3.86040420      -0.20755089      -0.21575054       0.00000000
Si      -2.90727630      -0.70571279       2.49516019       0.00000000
