10
Lattice="16.28999089631971 0.0 0.0 0.0 16.28999089631971 0.0 0.0 0.0 34.3005442915855" Properties=species:S:1:pos:R:3:initial_magmoms:R:1 pbc="T T T"
Si       0.93369393      -1.24506099       1.82379526       0.00000000
Si       1.27021275       1.39706298      -1.55278651       0.00000000
Si      -0.64281969       1.54543230       1.78321769       0.00000000
Si      -1.56607173      -1.33403697      -1.49859162       0.00000000
Si       2.49219081      -0.03165147      -3.01910130       0.00000000
Si       3.01759218       2.65443921       0.15857150       0.00000000
Si      -0.31646583      -1.21239954       3.84845462       0.00000000
Si      -0.23662854       2.68693776      -3.02359467       0.00000000
Si      -0.24635367      -2.71964808      -3.02795084       0.00000000
Si       1.50319233      -3.51157340       1.50634354       0.00000000
