10
Lattice="16.28999089631971 0.0 0.0 0.0 16.28999089631971 0.0 0.0 0.0 34.3005442915855" Properties=species:S:1:pos:R:3:initial_magmoms:R:1 pbc="T T T"
Si      -2.01070728       1.24844931      -0.13281178       0.00000000
Si       0.87099372       1.27645182       1.85497447       0.00000000
Si       0.64281969      -1.54543230      -1.78321769       0.00000000
Si       1.57651362      -2.79049329       0.04057757       0.00000000
Si      -0.56668023       3.19873698       0.23722270       0.00000000
Si       1.67060466      -0.83393397       2.68007453       0.00000000
Si       0.32635386      -2.75783184       2.06523693       0.00000000
Si      -3.29269770       0.34578783       1.62574381       0.00000000
Si       1.91303244      -0.14836932      -3.33600420       0.00000000
Si       0.60590655       3.46776633      -1.84314078       0.00000000
