10
Lattice="16.28999089631971 0.0 0.0 0.0 16.28999089631971 0.0 0.0 0.0 34.3005442915855" Properties=species:S:1:pos:R:3:initial_magmoms:R:1 pbc="T T T"
Si       1.25828847       1.93259673       0.24963950       0.00000000
Si       1.00688490      -2.12172363       0.26980823       0.00000000
Si      -0.53229204      -0.12616605      -2.31724317       0.00000000
Si      -1.81674225       0.08825922       1.58636676       0.00000000
Si      -0.71063496       3.29515749       0.11329476       0.00000000
Si      -1.77631047      -2.08393083      -2.18971367       0.00000000
Si       1.58086305      -0.90173295      -3.10046223       0.00000000
Si      -0.80363457      -3.49213617      -0.42199983       0.00000000
Si       1.71243738      -2.02815387       2.57178765       0.00000000
Si      -3.68287578       0.38661057       0.18000936       0.00000000
