10
Lattice="16.28999089631971 0.0 0.0 0.0 16.28999089631971 0.0 0.0 0.0 34.3005442915855" Properties=species:S:1:pos:R:3:initial_magmoms:R:1 pbc="T T T"
Si      -1.23520554       1.44274014      -1.49776840       0.00000000
Si       1.46119671      -1.26532575      -1.48507720       0.00000000
Si      -1.04111019      -1.66589685       1.47962341       0.00000000
Si       1.13489172       1.79124840       1.36694606       0.00000000
Si      -1.13244822       2.38637097       2.47540306       0.00000000
Si       1.14942240      -2.04722946       2.81628206       0.00000000
Si      -2.68051950      -2.67304239      -0.10077506       0.00000000
Si      -2.42831772       2.94329349      -0.13867718       0.00000000
Si       2.84918616      -2.61676044      -0.06472516       0.00000000
Si      -2.60092656       0.09021402      -2.87047695       0.00000000
