10
Lattice="16.28999089631971 0.0 0.0 0.0 16.28999089631971 0.0 0.0 0.0 34.3005442915855" Properties=species:S:1:pos:R:3:initial_magmoms:R:1 pbc="T T T"
Si      -2.06846022       0.68053104       0.78634042       0.00000000
Si      -0.00656487      -0.81137232      -2.16988795       0.00000000
Si       1.36158336       1.90677708      -0.28239654       0.00000000
Si       0.64734831      -1.30992288       1.85847313       0.00000000
Si       1.95919830      -2.09345138      -2.08115239       0.00000000
Si       1.43915634       2.84439690       1.88546767       0.00000000
Si      -1.15022224      -1.25263095       3.36642880       0.00000000
Si      -3.00323159       2.14767360      -0.77087086       0.00000000
Si      -3.01181642      -1.22620043       1.91952813       0.00000000
Si      -1.82567406       2.07021465       2.62701155       0.00000000
