10
Lattice="16.28999089631971 0.0 0.0 0.0 16.28999089631971 0.0 0.0 0.0 34.3005442915855" Properties=species:S:1:pos:R:3:initial_magmoms:R:1 pbc="T T T"
Si      -1.13011875      -1.36572102      -1.55268502       0.00000000
Si       1.04936922      -1.59964542       1.39611525       0.00000000
Si      -1.67785371       1.12596480       1.36647957       0.00000000
Si       1.94066028       0.69063084      -1.46312625       0.00000000
Si       2.39860476      -0.24461064       2.76103758       0.00000000
Si      -0.67645854      -0.19590354      -3.64237825       0.00000000
Si      -0.31760613       2.46902643       2.75897954       0.00000000
Si       2.66598882       2.60524341      -0.08092189       0.00000000
Si      -0.31252365       2.22239583      -3.08646901       0.00000000
Si       2.45177532      -2.93146695       0.00505247       0.00000000
