10
Lattice="16.28999089631971 0.0 0.0 0.0 16.28999089631971 0.0 0.0 0.0 34.3005442915855" Properties=species:S:1:pos:R:3:initial_magmoms:R:1 pbc="T T T"
Si      -0.03189582       2.27735829      -0.48175141       0.00000000
Si       2.26733994      -0.59512257      -1.10845701       0.00000000
Si      -0.79281801      -0.78887583       2.40803676       0.00000000
Si      -2.48624496      -0.95938326      -1.18601058       0.00000000
Si      -1.29586950       0.55692252      -2.61408024       0.00000000
Si      -2.24293752       2.61803106       0.34379455       0.00000000
Si       1.13244822      -2.38637097      -2.47540306       0.00000000
Si       1.36503684      -1.46737062       3.04822247       0.00000000
Si      -3.74757966       0.66896514       0.08263006       0.00000000
Si       3.76263162      -0.13812291       0.74044626       0.00000000
