10
Lattice="16.28999089631971 0.0 0.0 0.0 16.28999089631971 0.0 0.0 0.0 34.3005442915855" Properties=species:S:1:pos:R:3:initial_magmoms:R:1 pbc="T T T"
Si       0.22138110      -2.27721168       0.27611954       0.00000000
Si      -1.59705531       0.36737208      -1.63030578       0.00000000
Si      -0.88110981       0.48558861       2.14906750       0.00000000
Si       2.02616649       1.19130140      -0.34609269       0.00000000
Si       2.85560442       1.20462174       1.82273194       0.00000000
Si       0.92492991       1.71519269       3.04688475       0.00000000
Si       1.93841226      -2.51488278       1.86842029       0.00000000
Si      -3.67107205      -0.47635218      -0.82235601       0.00000000
Si      -0.60416352      -0.02003670      -3.76520715       0.00000000
Si      -1.61231904       2.59542773      -2.35253845       0.00000000
