10
Lattice="16.28999089631971 0.0 0.0 0.0 16.28999089631971 0.0 0.0 0.0 34.3005442915855" Properties=species:S:1:pos:R:3:initial_magmoms:R:1 pbc="T T T"
Si       2.15785485      -0.67849479       0.64018572       0.00000000
Si      -0.62457489       1.14973191       1.97708448       0.00000000
Si      -1.61196066      -1.75303206      -0.18659507       0.00000000
Si       0.79281801       0.78887583      -2.40803676       0.00000000
Si      -3.48397488      -0.37429533      -0.78832985       0.00000000
Si      -2.59875999      -0.03451851       2.58351844       0.00000000
Si       1.88876034      -1.19944899       2.92213360       0.00000000
Si      -2.01119598      -2.25189702       2.12155845       0.00000000
Si       3.50283870       1.25291277       0.32112188       0.00000000
Si      -0.28843074      -3.53242134      -1.32345294       0.00000000
