10
Lattice="16.28999089631971 0.0 0.0 0.0 16.28999089631971 0.0 0.0 0.0 34.3005442915855" Properties=species:S:1:pos:R:3:initial_magmoms:R:1 pbc="T T T"
Si       1.35459495      -1.35686691      -1.35614138       0.00000000
Si       1.35627282       1.35725791       1.35638148       0.00000000
Si      -1.35738054       1.35267390      -1.36049755       0.00000000
Si      -1.35886293      -1.35735561       1.35648438       0.00000000
Si       2.70427032       0.01554680      -2.70831418       0.00000000
Si       2.71352304      -2.71305828      -0.00030871       0.00000000
Si       2.71357191       0.00055042       2.71348327       0.00000000
Si      -0.00130320      -2.71502937       2.71348327       0.00000000
Si       2.71383255       2.71487465       0.00051451       0.00000000
Si      -0.00107514       2.71534706       2.71399778       0.00000000
