10
Lattice="16.28999089631971 0.0 0.0 0.0 16.28999089631971 0.0 0.0 0.0 34.3005442915855" Properties=species:S:1:pos:R:3:initial_magmoms:R:1 pbc="T T T"
Si      -1.35296595       1.35795492      -1.36262418       0.00000000
Si      -1.36184400      -1.37183924       1.34650292       0.00000000
Si       1.36254447      -1.35727598      -1.36262418       0.00000000
Si       1.36570473       1.38024616       1.35394614       0.00000000
Si      -2.70974376       2.71457960      -0.00284695       0.00000000
Si      -2.70673011      -2.71916885      -0.00758042       0.00000000
Si       2.71552671      -2.71402121      -0.00123482       0.00000000
Si      -2.71098180      -0.00070616      -2.71948587       0.00000000
Si       2.71643895       2.71692536      -0.00603690       0.00000000
Si       0.00381186       2.71490540      -2.71962308       0.00000000
