10
Lattice="16.28999089631971 0.0 0.0 0.0 16.28999089631971 0.0 0.0 0.0 34.3005442915855" Properties=species:S:1:pos:R:3:initial_magmoms:R:1 pbc="T T T"
Si       0.58886721      -0.89701278       2.08427374       0.00000000
Si      -0.56949840       2.26651241       0.31745171       0.00000000
Si       1.44137178       0.17807576      -1.88886343       0.00000000
Si      -1.66333932      -1.43559276      -1.05223839       0.00000000
Si      -0.41863671      -0.63384783      -3.20847471       0.00000000
Si      -1.24405101       0.11641811       3.19242204       0.00000000
Si      -1.81965816       2.29917386       2.34211107       0.00000000
Si       2.61635319      -0.09113278       2.97667150       0.00000000
Si      -3.87438102      -1.09491999      -0.22669242       0.00000000
Si       1.07857719      -3.24891411       2.15867166       0.00000000
