10
Lattice="16.28999089631971 0.0 0.0 0.0 16.28999089631971 0.0 0.0 0.0 34.3005442915855" Properties=species:S:1:pos:R:3:initial_magmoms:R:1 pbc="T T T"
Si      -1.36935369      -1.34482095      -1.38680608       0.00000000
Si       1.34649882       1.36866951      -1.38749209       0.00000000
Si      -1.22197806       1.42871445       1.46631479       0.00000000
Si       1.46777787      -1.41328782       1.54626940       0.00000000
Si       2.70609480      -2.67915440      -0.03001299       0.00000000
Si       2.69607645       2.72877048      -0.01632707       0.00000000
Si      -2.73854448      -2.68799661      -0.00884955       0.00000000
Si      -2.72881935       2.71858923      -0.00449337       0.00000000
Si      -0.01257588      -2.70144563      -2.74658332       0.00000000
Si       2.70265761       0.01311345      -2.74682342       0.00000000
