10
Lattice="16.28999089631971 0.0 0.0 0.0 16.28999089631971 0.0 0.0 0.0 34.3005442915855" Properties=species:S:1:pos:R:3:initial_magmoms:R:1 pbc="T T T"
Si       0.83579103       1.40789583      -1.76284316       0.00000000
Si      -0.86397273       1.97742681       1.11816407       0.00000000
Si       1.13653701      -1.43454627       1.74102800       0.00000000
Si      -1.74737943      -1.25737623      -1.71135801       0.00000000
Si       2.09276001      -2.59229286      -0.14142122       0.00000000
Si       2.38285233       2.75038731      -0.40107649       0.00000000
Si       2.17067508       0.04267980      -3.19399987       0.00000000
Si      -3.05450532       2.35875942      -0.21849459       0.00000000
Si      -3.01759218      -2.65443921      -0.15857150       0.00000000
Si       3.44434131      -1.29784059      -1.68522098       0.00000000
