10
Lattice="16.28999089631971 0.0 0.0 0.0 16.28999089631971 0.0 0.0 0.0 34.3005442915855" Properties=species:S:1:pos:R:3:initial_magmoms:R:1 pbc="T T T"
Si       1.49333688       1.15448859       1.47585034       0.00000000
Si      -1.27267254      -1.37901366       1.49420115       0.00000000
Si       0.95622300      -1.15774659      -1.88244922       0.00000000
Si      -1.13653701       1.43454627      -1.74102800       0.00000000
Si       2.76486912      -2.25520389      -0.53440278       0.00000000
Si      -0.13805775       2.38598001       2.77337206       0.00000000
Si       3.08210058      -0.40016385       2.20353680       0.00000000
Si       2.89426059       2.66709654       0.02816076       0.00000000
Si      -2.00050974       3.41197308      -0.62286393       0.00000000
Si      -3.22043526      -2.46495393      -0.07580425       0.00000000
