10
Lattice="16.28999089631971 0.0 0.0 0.0 16.28999089631971 0.0 0.0 0.0 34.3005442915855" Properties=species:S:1:pos:R:3:initial_magmoms:R:1 pbc="T T T"
Si       0.06801075      -1.93642488      -1.26891504       0.00000000
Si      -1.31779584      -0.54385794       1.99149071       0.00000000
Si       2.27309031      -0.33275583       0.97410170       0.00000000
Si      -1.40038614       1.58100966      -1.63263822       0.00000000
Si      -2.04266826       1.70878842       1.80589037       0.00000000
Si      -0.10096542       3.08307798       1.25365129       0.00000000
Si       1.58579892      -1.08204696      -2.86042689       0.00000000
Si      -3.31314165       1.57602492      -0.19396969       0.00000000
Si       2.00666736       0.90042975       3.08924595       0.00000000
Si       0.01853802      -0.25837569       3.86306666       0.00000000
