10
Lattice="16.28999089631971 0.0 0.0 0.0 16.28999089631971 0.0 0.0 0.0 34.3005442915855" Properties=species:S:1:pos:R:3:initial_magmoms:R:1 pbc="T T T"
Si       1.35073422       1.35314514       1.36575240       0.00000000
Si      -1.31186628       1.38186441      -1.38858628       0.00000000
Si      -1.36557441      -1.36231641       1.36369436       0.00000000
Si       1.41338556      -1.33301070      -1.39501764       0.00000000
Si      -2.47332699      -0.11512143      -2.77416924       0.00000000
Si       2.71433754       2.69628822      -0.01049940       0.00000000
Si      -2.71427238       2.71368594       0.00247650       0.00000000
Si       2.70837540      -0.00286704       2.72453492       0.00000000
Si      -0.00638568       2.71272483       2.72556393       0.00000000
Si       2.72033226      -2.71805166      -0.01152156       0.00000000
