10
Lattice="16.28999089631971 0.0 0.0 0.0 16.28999089631971 0.0 0.0 0.0 34.3005442915855" Properties=species:S:1:pos:R:3:initial_magmoms:R:1 pbc="T T T"
Si       0.20818620      -0.08329077      -2.36416634       0.00000000
Si      -1.71725922      -1.89327267      -0.00270974       0.00000000
Si       2.07063819      -1.10928384       1.03206965       0.00000000
Si      -0.70864758       2.88293904       0.34317714       0.00000000
Si       1.97887662       1.71551619      -2.28990562       0.00000000
Si      -3.15493317       0.02901249      -1.62046152       0.00000000
Si      -2.43545274      -1.35544203       2.21921216       0.00000000
Si      -0.97774209       2.36198484       2.62512502       0.00000000
Si       1.35923760      -1.93163562       3.13191585       0.00000000
Si       3.67826571       0.54605709       1.46909313       0.00000000
