10
Lattice="16.28999089631971 0.0 0.0 0.0 16.28999089631971 0.0 0.0 0.0 34.3005442915855" Properties=species:S:1:pos:R:3:initial_magmoms:R:1 pbc="T T T"
Si      -1.94891931       0.10813302      -1.32784341       0.00000000
Si      -0.24796638      -2.11491441       1.10663908       0.00000000
Si       1.57206645      -0.94921830      -1.64087035       0.00000000
Si       0.65493945       1.82850363       1.53597923       0.00000000
Si       1.98389394      -2.28301092       1.80592467       0.00000000
Si       0.19943847      -2.75628429      -2.44720800       0.00000000
Si       3.12567633      -2.08813365      -0.29978692       0.00000000
Si      -3.77817228      -0.21980097       0.12447674       0.00000000
Si       0.39884436       3.77506089       0.09785951       0.00000000
Si      -1.70865810      -1.52682912      -3.05398497       0.00000000
