10
Lattice="16.28999089631971 0.0 0.0 0.0 16.28999089631971 0.0 0.0 0.0 34.3005442915855" Properties=species:S:1:pos:R:3:initial_magmoms:R:1 pbc="T T T"
Si       1.91842443      -0.09014886       1.29957975       0.00000000
Si      -1.41615486       1.35368271       1.32863233       0.00000000
Si       0.73451610       0.78224580      -2.13716521       0.00000000
Si      -0.51751701      -2.33300493       0.41730066       0.00000000
Si       0.78190371      -0.83093661       3.30359017       0.00000000
Si       3.37157388      -1.05264351      -0.38114786       0.00000000
Si       3.11547879       0.89391375      -1.81926759       0.00000000
Si      -3.58378371       0.85822236       0.57491174       0.00000000
Si      -1.06153785      -3.10094811      -1.79265035       0.00000000
Si      -0.79633665       0.95682573       3.56506336       0.00000000
