10
Lattice="16.28999089631971 0.0 0.0 0.0 16.28999089631971 0.0 0.0 0.0 34.3005442915855" Properties=species:S:1:pos:R:3:initial_magmoms:R:1 pbc="T T T"
Si      -1.65433095      -0.21263337      -1.68477508       0.00000000
Si       0.45330183      -2.39528160       0.15081958       0.00000000
Si      -1.13296950       0.44962029       2.17249479       0.00000000
Si       1.96651251       1.30634397      -1.09923016       0.00000000
Si       0.58867173       2.47300119      -2.71495820       0.00000000
Si      -0.51781023       0.52815438      -3.68878550       0.00000000
Si      -3.23257131       1.57512897      -1.42330188       0.00000000
Si       0.46973844       1.49467266       3.58935986       0.00000000
Si       3.18526515       2.17917846       0.83051954       0.00000000
Si       2.01642507      -2.81041596       1.94103459       0.00000000
