10
Lattice="16.28999089631971 0.0 0.0 0.0 16.28999089631971 0.0 0.0 0.0 34.3005442915855" Properties=species:S:1:pos:R:3:initial_magmoms:R:1 pbc="T T T"
Si      -1.33325505       1.32629922      -1.38972163       0.00000000
Si       0.96156612       1.83798441       1.08729356       0.00000000
Si       1.39326741      -1.37282346      -1.36468222       0.00000000
Si      -1.66490316      -1.03045653       1.49423545       0.00000000
Si      -0.16961148      -0.57345687       3.34313872       0.00000000
Si       1.84288770       0.66889998       2.96387739       0.00000000
Si      -0.85942782       3.45569285       1.28431600       0.00000000
Si      -2.71943631       2.64376926      -0.03529528       0.00000000
Si      -2.67814116      -0.02103039      -2.74380497       0.00000000
Si       2.88261324      -2.53042344       0.11545570       0.00000000
