10
Lattice="16.28999089631971 0.0 0.0 0.0 16.28999089631971 0.0 0.0 0.0 34.3005442915855" Properties=species:S:1:pos:R:3:initial_magmoms:R:1 pbc="T T T"
Si       1.83187566       1.35045729      -0.12200710       0.00000000
Si      -1.72437795       0.54410229      -1.51954926       0.00000000
Si       0.47552139      -1.96970535       1.28150335       0.00000000
Si      -0.06224409       2.24541360       1.17647503       0.00000000
Si      -2.33453619       1.73907153       1.87805875       0.00000000
Si       3.26751336       0.27245025       1.30297550       0.00000000
Si      -0.67176702      -0.05805756      -3.50826163       0.00000000
Si      -3.06936180      -1.38730527      -1.20048542       0.00000000
Si      -1.49812614      -2.39798574       2.49190163       0.00000000
Si       2.23148565      -1.32879159       2.73389211       0.00000000
