10
Lattice="16.28999089631971 0.0 0.0 0.0 16.28999089631971 0.0 0.0 0.0 34.3005442915855" Properties=species:S:1:pos:R:3:initial_magmoms:R:1 pbc="T T T"
Si       0.12478140       0.95970906      -2.24222783       0.00000000
Si       0.72532854       1.91461257       1.38220436       0.00000000
Si      -1.94066028      -0.69063084       1.46312625       0.00000000
Si       1.57925034      -2.03870979       0.02387319       0.00000000
Si      -2.25318393       1.53176499      -1.62334277       0.00000000
Si       1.82436597       0.41923944       2.85474813       0.00000000
Si      -2.61711882      -0.88653438      -2.17925200       0.00000000
Si       3.18195828      -0.99365742       1.44073827       0.00000000
Si      -3.07077903      -2.05635186      -0.08955877       0.00000000
Si      -0.52035147      -0.91320111      -3.57192348       0.00000000
