10
Lattice="16.28999089631971 0.0 0.0 0.0 16.28999089631971 0.0 0.0 0.0 34.3005442915855" Properties=species:S:1:pos:R:3:initial_magmoms:R:1 pbc="T T T"
Si      -0.61981821       0.39685698      -2.23643104       0.00000000
Si       0.64513287       1.87291017       1.32969564       0.00000000
Si       1.57824036      -1.78776234      -0.26147320       0.00000000
Si      -2.09676735       0.02666673       1.39267148       0.00000000
Si      -0.36346248      -3.16205190       0.29076588       0.00000000
Si      -1.73283246       2.44496610       1.94858071       0.00000000
Si       2.71476108      -1.04697459      -2.26548362       0.00000000
Si       2.54668086       2.68086159      -0.37634578       0.00000000
Si       0.52035147       0.91320111       3.57192348       0.00000000
Si       0.79633665      -0.95682573      -3.56506336       0.00000000
