10
Lattice="16.28999089631971 0.0 0.0 0.0 16.28999089631971 0.0 0.0 0.0 34.3005442915855" Properties=species:S:1:pos:R:3:initial_magmoms:R:1 pbc="T T T"
Si       1.35720691       1.35638679       1.35744480       0.00000000
Si      -1.35770634      -1.35850854       1.35744480       0.00000000
Si      -1.35987291       1.35470241      -1.35939993       0.00000000
Si       1.35755063      -1.35906240      -1.36166377       0.00000000
Si      -0.00042858       2.71354253       2.71461519       0.00000000
Si      -2.71513575       2.71357511       0.00137202       0.00000000
Si       2.71489859      -0.00101209       2.71461519       0.00000000
Si      -2.71539639      -0.00074912       2.71434079       0.00000000
Si      -2.71544526      -2.71435782       0.00054881       0.00000000
Si       2.71427957       2.71618151      -0.00106332       0.00000000
