10
Lattice="16.28999089631971 0.0 0.0 0.0 16.28999089631971 0.0 0.0 0.0 34.3005442915855" Properties=species:S:1:pos:R:3:initial_magmoms:R:1 pbc="T T T"
Si       1.34735960       1.35569617       1.35590127       0.00000000
Si      -1.35786924       1.35494683      -1.35792501       0.00000000
Si       1.35906885      -1.35814194      -1.35689599       0.00000000
Si      -1.35959598      -1.35165852       1.38999603       0.00000000
Si       2.57715035      -0.12581973       2.67235690       0.00000000
Si      -0.03282435       2.71107467       2.71437509       0.00000000
Si       0.00030447       2.71247561      -2.71506110       0.00000000
Si       2.71789595       2.71058597       0.00171503       0.00000000
Si      -2.71466334      -0.00181604      -2.71533551       0.00000000
Si       2.71563164      -0.00207901      -2.71506110       0.00000000
