10
Lattice="16.28999089631971 0.0 0.0 0.0 16.28999089631971 0.0 0.0 0.0 34.3005442915855" Properties=species:S:1:pos:R:3:initial_magmoms:R:1 pbc="T T T"
Si       1.19290271       1.35262386       1.47691366       0.00000000
Si      -1.34198649       1.37034738      -1.34022592       0.00000000
Si       1.38018395      -1.35537850      -1.35847382       0.00000000
Si      -1.28466198      -1.26224694       1.56667824       0.00000000
Si       2.13614747      -0.51556221       2.61949973       0.00000000
Si      -0.63874719       2.16215541       2.89332113       0.00000000
Si      -2.65197942      -2.55659854       0.05049043       0.00000000
Si       2.58650081       2.69495244       0.05073053       0.00000000
Si       0.35335358      -2.22817878       3.05467098       0.00000000
Si      -2.68385895       0.00392589      -2.71560991       0.00000000
