10
Lattice="16.28999089631971 0.0 0.0 0.0 16.28999089631971 0.0 0.0 0.0 34.3005442915855" Properties=species:S:1:pos:R:3:initial_magmoms:R:1 pbc="T T T"
Si      -1.38261375       1.22384522      -1.40611730       0.00000000
Si      -1.81534131      -1.01655499       1.06345467       0.00000000
Si       1.36731744       1.29435160       1.51618781       0.00000000
Si       1.32520779      -1.50613465      -1.37486949       0.00000000
Si      -2.62093068       2.48971180       0.17016510       0.00000000
Si       2.65197942       2.55659854      -0.05049043       0.00000000
Si      -0.03187953       2.56052443      -2.76610034       0.00000000
Si      -0.93401973      -2.18563942       2.94003850       0.00000000
Si       2.56233555      -2.78113666       0.27461031       0.00000000
Si       2.68480377      -0.15447613      -2.76486552       0.00000000
