10
Lattice="16.28999089631971 0.0 0.0 0.0 16.28999089631971 0.0 0.0 0.0 34.3005442915855" Properties=species:S:1:pos:R:3:initial_magmoms:R:1 pbc="T T T"
Si      -0.73564011       1.97869743      -1.24521336       0.00000000
Si       1.83164990      -0.80953155      -1.41640747       0.00000000
Si      -1.67513328      -1.81941381       0.16536302       0.00000000
Si      -1.35790182       0.03562623       2.90330259       0.00000000
Si      -2.13219810       0.57249576      -2.72648319       0.00000000
Si      -1.54574181       3.10288662       0.72792656       0.00000000
Si       0.63874719      -2.16215541      -2.89332113       0.00000000
Si      -0.64591479      -3.42440235      -1.32664289       0.00000000
Si      -3.48377940      -0.72195651      -1.18268343       0.00000000
Si       2.77489466      -2.67771762      -0.27382140       0.00000000
