10
Lattice="16.28999089631971 0.0 0.0 0.0 16.28999089631971 0.0 0.0 0.0 34.3005442915855" Properties=species:S:1:pos:R:3:initial_magmoms:R:1 pbc="T T T"
Si      -1.27366623       1.34052039      -1.50877888       0.00000000
Si      -1.35158130      -1.29445227       1.54379976       0.00000000
Si       1.39655799       1.40620167       1.48126983       0.00000000
Si       1.42895880      -1.36430379      -1.50706386       0.00000000
Si       2.13219810      -0.57249576       2.72648319       0.00000000
Si      -2.50196481      -2.80153791       0.05381758       0.00000000
Si      -2.60855028       2.70573642      -0.07762218       0.00000000
Si       0.45706482      -2.39190957       2.89184620       0.00000000
Si       2.79906183       2.68073127      -0.11284885       0.00000000
Si      -2.62324386      -0.01958058      -2.87994391       0.00000000
