10
Lattice="16.28999089631971 0.0 0.0 0.0 16.28999089631971 0.0 0.0 0.0 34.3005442915855" Properties=species:S:1:pos:R:3:initial_magmoms:R:1 pbc="T T T"
Si      -0.81010170       1.12418919       1.97313991       0.00000000
Si       0.73564011      -1.97869743       1.24521336       0.00000000
Si      -1.39655799      -1.40620167      -1.48126983       0.00000000
Si       1.40250384       1.27452960      -1.59411869       0.00000000
Si       1.46359934       1.70328240       2.70014036       0.00000000
Si      -2.45804697       2.64202623      -0.19712534       0.00000000
Si       2.56729001      -2.78822898      -0.17119411       0.00000000
Si      -2.74813929      -2.70065394       0.06252993       0.00000000
Si       3.08883554       2.36392335      -0.27282668       0.00000000
Si       0.05087367       2.66725944      -2.97927834       0.00000000
