10
Lattice="16.28999089631971 0.0 0.0 0.0 16.28999089631971 0.0 0.0 0.0 34.3005442915855" Properties=species:S:1:pos:R:3:initial_magmoms:R:1 pbc="T T T"
Si      -1.24252382       1.23077466      -1.54150162       0.00000000
Si      -1.76387698      -1.08095553       1.14351218       0.00000000
Si       1.78985886      -1.34408790      -0.78730083       0.00000000
Si       0.78121464       1.50537519       1.77323623       0.00000000
Si      -0.41866929      -2.41399881       2.62563953       0.00000000
Si      -1.30995613       2.65755060       2.10728942       0.00000000
Si       3.21577143      -1.08427869       1.38039188       0.00000000
Si      -3.00015766       0.93693564       1.95574953       0.00000000
Si      -0.28697116       3.07190304      -2.51954789       0.00000000
Si       3.07184928      -0.44142642      -2.54585642       0.00000000
