10
Lattice="16.28999089631971 0.0 0.0 0.0 16.28999089631971 0.0 0.0 0.0 34.3005442915855" Properties=species:S:1:pos:R:3:initial_magmoms:R:1 pbc="T T T"
Si      -1.56312324       0.41513436      -1.79021501       0.00000000
Si       1.08220986       1.64125008       1.47345072       0.00000000
Si      -1.49227803      -1.03822686       1.66933437       0.00000000
Si       1.99013301      -0.42207390      -1.54266784       0.00000000
Si       2.73981088      -2.12429745       0.07940580       0.00000000
Si      -2.71992501      -2.52346761       0.27948099       0.00000000
Si      -3.55125258      -0.74367108      -1.01639430       0.00000000
Si       2.35211310       3.09488823       0.00782053       0.00000000
Si      -0.18533133      -2.42326782       3.05283045       0.00000000
Si       2.52050283       0.30305916       3.03590312       0.00000000
