10
Lattice="16.28999089631971 0.0 0.0 0.0 16.28999089631971 0.0 0.0 0.0 34.3005442915855" Properties=species:S:1:pos:R:3:initial_magmoms:R:1 pbc="T T T"
Si       1.26990324       1.45363815      -1.46563019       0.00000000
Si      -1.27353591       1.34982198       1.58040189       0.00000000
Si      -1.08220986      -1.64125008      -1.47345072       0.00000000
Si       1.43829297      -1.33819092       1.56245241       0.00000000
Si      -2.57448789      -2.67947694       0.19588366       0.00000000
Si      -2.62889649       2.66383854       0.17487456       0.00000000
Si       0.90792315      -2.06332398      -3.01611856       0.00000000
Si       2.75777550       2.66323581       0.02283732       0.00000000
Si       2.36603195      -0.05841594      -3.10073805       0.00000000
Si       2.99596136      -2.58041745       0.15577601       0.00000000
