10
Lattice="16.28999089631971 0.0 0.0 0.0 16.28999089631971 0.0 0.0 0.0 34.3005442915855" Properties=species:S:1:pos:R:3:initial_magmoms:R:1 pbc="T T T"
Si       1.35084825       1.35694071      -1.37277715       0.00000000
Si      -1.36068741      -1.36155078      -1.37198824       0.00000000
Si      -1.39326741       1.37282346       1.36468222       0.00000000
Si       1.48934583      -1.15759998       1.48013791       0.00000000
Si       2.71210581      -2.69791722       0.00686011       0.00000000
Si      -2.72652246       2.69912268      -0.02503941       0.00000000
Si       2.70884781       2.72122821       0.01365162       0.00000000
Si       2.71225242      -0.00203625      -2.73289739       0.00000000
Si      -2.73186558      -2.71420722       0.00689441       0.00000000
Si      -0.00213399       2.71368594      -2.73416651       0.00000000
