10
Lattice="16.28999089631971 0.0 0.0 0.0 16.28999089631971 0.0 0.0 0.0 34.3005442915855" Properties=species:S:1:pos:R:3:initial_magmoms:R:1 pbc="T T T"
Si      -1.87970310      -1.44231660       0.38152517       0.00000000
Si      -0.60292548       1.22491026      -2.12375369       0.00000000
Si       2.19614191      -1.06334604      -0.82815280       0.00000000
Si       0.78107292       0.53287848       2.46500999       0.00000000
Si       1.24058924      -2.90447442       0.14989346       0.00000000
Si      -1.03311180      -3.48356763      -0.57710698       0.00000000
Si       3.80344526       0.53173818       0.05069623       0.00000000
Si       2.90365082       1.51417179       2.03639015       0.00000000
Si      -2.43462195       2.79914328      -1.20782574       0.00000000
Si      -2.45780262      -2.10934323       2.60512779       0.00000000
