10
Lattice="16.28999089631971 0.0 0.0 0.0 16.28999089631971 0.0 0.0 0.0 34.3005442915855" Properties=species:S:1:pos:R:3:initial_magmoms:R:1 pbc="T T T"
Si      -0.50357277       2.12589387       0.71437784       0.00000000
Si      -2.16944844      -0.71061867      -0.57710698       0.00000000
Si       0.72884718      -1.63256751       1.59367278       0.00000000
Si       1.46499228       0.61910145      -1.82235464       0.00000000
Si       2.11947561      -1.65962520      -1.97145919       0.00000000
Si       2.64831417      -2.17634400       0.30781326       0.00000000
Si      -1.58771951      -2.65111605      -1.72627876       0.00000000
Si      -0.96956451       3.20875533      -1.42951028       0.00000000
Si       0.08332335      -1.89991899      -3.15266769       0.00000000
Si      -2.15121830       1.87844877       2.42865140       0.00000000
