10
Lattice="16.28999089631971 0.0 0.0 0.0 16.28999089631971 0.0 0.0 0.0 34.3005442915855" Properties=species:S:1:pos:R:3:initial_magmoms:R:1 pbc="T T T"
Si      -0.57808323       0.81568917       2.16371384       0.00000000
Si       2.09117078      -1.15217541      -0.33405319       0.00000000
Si      -1.69020153      -1.72061496      -0.15153989       0.00000000
Si      -0.39208401       2.01057696      -1.33367451       0.00000000
Si      -2.71702539       1.76375088       1.61490483       0.00000000
Si       1.30995613      -2.65755060      -2.10728942       0.00000000
Si      -1.68099768       3.36499272       0.18398822       0.00000000
Si       0.68297684       2.80852632       2.46528440       0.00000000
Si       2.55716252      -2.23503687       1.80983493       0.00000000
Si      -3.63095955      -0.63164475      -1.19355671       0.00000000
