10
Lattice="16.28999089631971 0.0 0.0 0.0 16.28999089631971 0.0 0.0 0.0 34.3005442915855" Properties=species:S:1:pos:R:3:initial_magmoms:R:1 pbc="T T T"
Si      -1.35635427      -1.35599589      -1.35741050       0.00000000
Si      -1.35749457       1.35718506       1.35669019       0.00000000
Si       1.35752715      -1.35752715       1.35771920       0.00000000
Si       1.35733167       1.35915615      -1.35710179       0.00000000
Si      -0.00159642       2.71534752      -2.71293447       0.00000000
Si      -2.71536381       0.00206883       2.71403208       0.00000000
Si       0.00146610       2.71538010       2.71420359       0.00000000
Si      -2.71505430       2.71485882      -0.00030871       0.00000000
Si      -2.71511946      -2.71485882       0.00003430       0.00000000
Si       2.71507059       2.71500543      -0.00020580       0.00000000
