10
Lattice="16.28999089631971 0.0 0.0 0.0 16.28999089631971 0.0 0.0 0.0 34.3005442915855" Properties=species:S:1:pos:R:3:initial_magmoms:R:1 pbc="T T T"
Si       0.58172893      -1.94049738      -1.14917178       0.00000000
Si      -1.46651932      -0.68105232       1.68230544       0.00000000
Si       2.16944844       0.71061867       0.57710698       0.00000000
Si      -1.34520769       1.33304328      -1.48212735       0.00000000
Si      -2.69190199      -2.14047342       0.26819611       0.00000000
Si       1.66587567       2.83651254       1.29148482       0.00000000
Si       0.41866929       2.41399881      -2.62563953       0.00000000
Si       2.25277179      -1.18930032      -2.57556071       0.00000000
Si      -2.00694007       1.40090742       2.70511394       0.00000000
Si       2.89829562      -0.92194884       2.17077976       0.00000000
