10
Lattice="16.28999089631971 0.0 0.0 0.0 16.28999089631971 0.0 0.0 0.0 34.3005442915855" Properties=species:S:1:pos:R:3:initial_magmoms:R:1 pbc="T T T"
Si      -0.70358139      -0.04487895      -2.19722549       0.00000000
Si       2.13974037      -0.98728803       0.13689355       0.00000000
Si      -1.37153655      -1.33781625       1.38584567       0.00000000
Si       0.22465539       2.35349516       0.22243915       0.00000000
Si      -2.64609873       0.44517312       2.30115620       0.00000000
Si       1.06769547       1.27462734      -3.14014798       0.00000000
Si       1.97770374       2.67236214      -1.43688490       0.00000000
Si       1.72069641      -3.06333450       1.32012579       0.00000000
Si       3.52897016       0.62876142       1.17225606       0.00000000
Si      -1.28096415      -2.29860045      -2.70682897       0.00000000
