10
Lattice="16.28999089631971 0.0 0.0 0.0 16.28999089631971 0.0 0.0 0.0 34.3005442915855" Properties=species:S:1:pos:R:3:initial_magmoms:R:1 pbc="T T T"
Si      -1.35704886       1.35731538      -1.35734190       0.00000000
Si      -1.35642984      -1.35904212       1.35693029       0.00000000
Si       1.35750764       1.35829278       1.35686169       0.00000000
Si       1.35768520      -1.35796698      -1.35706749       0.00000000
Si      -0.00178602      -2.71142163       2.71372338       0.00000000
Si       2.71479044       0.00019548      -2.71403208       0.00000000
Si      -2.71392441       0.00109143      -2.71536981       0.00000000
Si      -2.71480407      -2.71515204       0.00037731       0.00000000
Si      -2.71480407       2.71515204       0.00078891       0.00000000
Si       0.00107675      -2.71621089      -2.71379198       0.00000000
