10
Lattice="16.28999089631971 0.0 0.0 0.0 16.28999089631971 0.0 0.0 0.0 34.3005442915855" Properties=species:S:1:pos:R:3:initial_magmoms:R:1 pbc="T T T"
Si       1.28772450      -1.34635221      -1.39661604       0.00000000
Si      -1.11873204      -1.63331685       1.34231825       0.00000000
Si      -1.45376195       1.37525067      -1.34996728       0.00000000
Si       1.60943571       1.34604270       1.41037057       0.00000000
Si       0.60748668      -3.46522509       1.25865918       0.00000000
Si       2.54760939      -2.75398740       0.02020303       0.00000000
Si       2.62720233       0.00926901      -2.74949887       0.00000000
Si      -1.78841557      -0.45282942       3.33723902       0.00000000
Si      -0.08175951      -2.70664866      -2.74383927       0.00000000
Si      -0.08360028       2.72069064      -2.74648042       0.00000000
