10
Lattice="16.28999089631971 0.0 0.0 0.0 16.28999089631971 0.0 0.0 0.0 34.3005442915855" Properties=species:S:1:pos:R:3:initial_magmoms:R:1 pbc="T T T"
Si      -0.95555267      -1.84112838       0.97804627       0.00000000
Si       0.66968353      -1.18048743      -1.99492077       0.00000000
Si       1.60730335       1.59508422       0.87884904       0.00000000
Si      -2.19614191       1.06334604       0.82815280       0.00000000
Si       3.47931757       0.21634749       1.48058382       0.00000000
Si       1.78841557       0.45282942      -3.33723902       0.00000000
Si      -2.79906739       2.28825630      -1.29560088       0.00000000
Si       0.70750891       2.57751783       2.86454296       0.00000000
Si      -1.41506899       1.59622452       3.29316280       0.00000000
Si       0.28697116      -3.07190304       2.51954789       0.00000000
