10
Lattice="16.28999089631971 0.0 0.0 0.0 16.28999089631971 0.0 0.0 0.0 34.3005442915855" Properties=species:S:1:pos:R:3:initial_magmoms:R:1 pbc="T T T"
Si      -0.89979444       0.98243361       1.98569392       0.00000000
Si       1.87201422      -1.37873673       0.60173478       0.00000000
Si      -1.60730335      -1.59508422      -0.87884904       0.00000000
Si       0.52921323       1.83213630      -1.53707685       0.00000000
Si       1.79054793       0.20378790      -2.80571749       0.00000000
Si       0.88521489       0.33977682       3.37184829       0.00000000
Si       3.48397488       0.37429533       0.78832985       0.00000000
Si       1.47277890      -1.87760169       2.90988830       0.00000000
Si      -3.80344526      -0.53173818      -0.05069623       0.00000000
Si      -1.03305316       3.32488674       1.66693878       0.00000000
