10
Lattice="16.28999089631971 0.0 0.0 0.0 16.28999089631971 0.0 0.0 0.0 34.3005442915855" Properties=species:S:1:pos:R:3:initial_magmoms:R:1 pbc="T T T"
Si      -1.75689279       0.11108151       1.52723259       0.00000000
Si       2.22648462       0.70565022       0.32921681       0.00000000
Si      -0.76971879       1.56059829      -1.60163051       0.00000000
Si       0.63812817      -2.29102560      -0.24734136       0.00000000
Si       2.77775451      -1.38611610      -0.73420356       0.00000000
Si       2.08264392       1.28765934       2.58087730       0.00000000
Si      -2.48874547       2.36563380       1.29539508       0.00000000
Si      -1.10843676      -3.10423869      -1.62457759       0.00000000
Si      -2.98262244       1.93932450      -0.96912812       0.00000000
Si       0.35451927       3.54470400      -1.05066056       0.00000000
