10
Lattice="16.28999089631971 0.0 0.0 0.0 16.28999089631971 0.0 0.0 0.0 34.3005442915855" Properties=species:S:1:pos:R:3:initial_magmoms:R:1 pbc="T T T"
Si       0.13325872      -2.34245313       0.31875514       0.00000000
Si      -0.83532025       0.83103435       2.05707339       0.00000000
Si       2.07401674       0.84372426      -0.80794977       0.00000000
Si      -1.26566132       1.45657754      -2.86131870       0.00000000
Si      -2.11175482       2.64390677       1.21938503       0.00000000
Si       0.82419907       2.24401985       2.88268795       0.00000000
Si       3.67107205       0.47635218       0.82235601       0.00000000
Si       1.03305316      -3.32488674      -1.66693878       0.00000000
Si       1.56226639      -1.49275044      -3.20401563       0.00000000
Si      -3.03209095       2.28109100      -0.96446324       0.00000000
