10
Lattice="16.2900001489832 0.0 0.0 0.0 16.2900001489832 0.0 0.0 0.0 29.17519467508972" Properties=species:S:1:pos:R:3:initial_magmoms:R:1 pbc="T T T"
Si      -0.75601891      -1.95587516      -0.91096628       0.00000000
Si       1.68653630       0.86983714      -1.31734757       0.00000000
Si       1.21836169      -0.63545662       1.86767926       0.00000000
Si      -1.56636496       1.65584105       0.53580245       0.00000000
Si      -2.30811383      -2.61851978       0.75747558       0.00000000
Si       1.27166257       1.34332228       3.12612211       0.00000000
Si      -0.59904847       2.57234089       2.50285243       0.00000000
Si      -1.57695346       2.98948544      -1.35696748       0.00000000
Si       2.30589839       2.81324230      -0.26003851       0.00000000
Si       3.25488864      -1.35405739       0.94915661       0.00000000
