10
Lattice="16.2900001489832 0.0 0.0 0.0 16.2900001489832 0.0 0.0 0.0 29.17519467508972" Properties=species:S:1:pos:R:3:initial_magmoms:R:1 pbc="T T T"
Si      -1.55189944      -1.23594838       1.22503725       0.00000000
Si       1.26346870      -1.43151471      -1.36665364       0.00000000
Si      -1.41890788       1.30430773      -1.35594635       0.00000000
Si       1.77991058       0.89252911       1.27084230       0.00000000
Si       2.64393218      -0.02401146      -2.64239738       0.00000000
Si       2.65152332      -2.64287985       0.09196021       0.00000000
Si       2.64953594       2.72756504       0.10514740       0.00000000
Si      -0.08610894       2.68607441      -2.70220653       0.00000000
Si      -2.76403836       2.62671365       0.02710376       0.00000000
Si       3.46014264      -0.86247406       1.51118756       0.00000000
