10
Lattice="16.2900001489832 0.0 0.0 0.0 16.2900001489832 0.0 0.0 0.0 29.17519467508972" Properties=species:S:1:pos:R:3:initial_magmoms:R:1 pbc="T T T"
Si       1.71885566       0.48092967      -1.49613316       0.00000000
Si      -1.20060559       1.91350487      -0.58061555       0.00000000
Si      -0.55636867      -2.19330191      -0.66434836       0.00000000
Si       0.56839069       0.65291950       2.37970393       0.00000000
Si       0.26707455       2.73755082       1.08123271       0.00000000
Si      -0.70895710      -1.34284987       2.95177115       0.00000000
Si      -0.20799072      -3.13773096       1.45336232       0.00000000
Si       0.94884364      -2.58486464      -2.44237225       0.00000000
Si       2.89935939      -1.45464814      -1.92509605       0.00000000
Si      -0.72464437       2.43436133      -2.79892230       0.00000000
