10
Lattice="16.2900001489832 0.0 0.0 0.0 16.2900001489832 0.0 0.0 0.0 29.17519467508972" Properties=species:S:1:pos:R:3:initial_magmoms:R:1 pbc="T T T"
H        1.27540927       0.80554051      -0.30362625       0.00000000
Si       1.20692611      -1.37117818       1.53082246       0.00000000
Si      -1.45468072       1.23846502       1.45476273       0.00000000
Si      -0.32694030      -1.18972387      -2.06916316       0.00000000
H       -1.49898952      -2.15792003      -2.07173057       0.00000000
Si       2.99305947      -1.72805951       0.02231902       0.00000000
Si       1.69666868      -2.45289935      -1.79964271       0.00000000
Si      -0.09878256       2.47180227       2.94631538       0.00000000
Si       3.81733347       0.44080740      -0.28189073       0.00000000
Si      -3.35920980       1.39277221      -1.29602050       0.00000000
