10
Lattice="16.2900001489832 0.0 0.0 0.0 16.2900001489832 0.0 0.0 0.0 29.17519467508972" Properties=species:S:1:pos:R:3:initial_magmoms:R:1 pbc="T T T"
Si       1.36990756       1.32991561      -1.38907478       0.00000000
Si       1.37261170      -1.31494510       1.41776859       0.00000000
Si      -1.35742942       1.39514077       1.35795944       0.00000000
Si      -1.37867158      -1.35702217      -1.38333310       0.00000000
Si      -0.25894584       2.48718980      -2.69535911       0.00000000
Si      -2.69022836       0.01337409       2.70421962       0.00000000
Si       2.69902496      -2.69606018       0.05047309       0.00000000
Si      -0.00785178      -2.72244836       2.69351232       0.00000000
Si      -0.00666261      -2.75855840      -2.71049229       0.00000000
Si      -2.74949139      -2.72745101      -0.04131208       0.00000000
