10
Lattice="16.2900001489832 0.0 0.0 0.0 16.2900001489832 0.0 0.0 0.0 29.17519467508972" Properties=species:S:1:pos:R:3:initial_magmoms:R:1 pbc="T T T"
Si      -0.97518457       2.15063840      -0.06978707       0.00000000
Si      -1.90223219      -0.85331093       1.18410445       0.00000000
Si       2.14974245      -0.18795402       1.20432286       0.00000000
Si      -0.00522909      -1.12562598      -2.20465276       0.00000000
H        2.39995685       0.31128561      -1.22915095       0.00000000
H       -0.04574232      -2.54312966      -1.66861691       0.00000000
H        0.57182788      -2.94081744       0.68590883       0.00000000
H        2.47485827      -2.60097545      -0.78761356       0.00000000
Si      -3.07625250       1.81490150      -1.11878119       0.00000000
Si      -1.80157628       2.49183245       2.14700258       0.00000000
