10
Lattice="16.2900001489832 0.0 0.0 0.0 16.2900001489832 0.0 0.0 0.0 29.17519467508972" Properties=species:S:1:pos:R:3:initial_magmoms:R:1 pbc="T T T"
Si       1.37979559       1.59894496      -1.03236426       0.00000000
Si       0.43764714      -2.04470942      -1.07598118       0.00000000
Si       1.31023729      -0.06221151       1.96416163       0.00000000
Si      -2.33777792       0.59518774       0.13694836       0.00000000
H        2.27299259       1.10333800       1.75515054       0.00000000
Si       2.65504196      -2.46400913      -0.43856153       0.00000000
Si      -2.68615586       1.53961678      -1.98076232       0.00000000
Si      -0.97368589      -3.73251144      -0.28644206       0.00000000
Si       2.95555989      -1.78641029       1.78558026       0.00000000
H        3.39530844      -1.42111355      -1.28831825       0.00000000
