10
Lattice="16.2900001489832 0.0 0.0 0.0 16.2900001489832 0.0 0.0 0.0 29.17519467508972" Properties=species:S:1:pos:R:3:initial_magmoms:R:1 pbc="T T T"
Si       1.19703808       1.18786681      -1.55278263       0.00000000
Si      -1.10969110       1.58275270       1.37817493       0.00000000
Si       1.62885340      -1.15727419       1.30628433       0.00000000
Si      -1.46649097      -1.27215127      -1.43176393       0.00000000
Si       1.82858510      -0.76370779      -3.01883617       0.00000000
Si       0.25894584      -2.48718980       2.69535911       0.00000000
Si      -2.65507454      -2.57429243       0.03732674       0.00000000
Si      -2.49649139       0.26265996       2.72523451       0.00000000
Si       2.70927137       2.61876413      -0.22269426       0.00000000
Si      -2.42675390       3.01977507       0.07100659       0.00000000
