10
Lattice="16.2900001489832 0.0 0.0 0.0 16.2900001489832 0.0 0.0 0.0 29.17519467508972" Properties=species:S:1:pos:R:3:initial_magmoms:R:1 pbc="T T T"
Si      -1.32800968       1.35940051       1.41231282       0.00000000
Si       1.38763108      -1.31561299       1.40405624       0.00000000
Si      -1.34801380      -1.35710362      -1.40329769       0.00000000
Si       1.38127798       1.34019460      -1.39539121       0.00000000
Si      -2.51647922      -0.22758759       2.65975662       0.00000000
Si       2.60012837       0.20548206       2.79903900       0.00000000
Si      -2.68081274      -2.73887031      -0.05703751       0.00000000
Si      -2.70184313       2.73628019       0.03171344       0.00000000
Si       2.75056653       2.68762196      -0.03019633       0.00000000
Si      -2.74602162      -0.00239463      -2.73138173       0.00000000
