10
Lattice="16.2900001489832 0.0 0.0 0.0 16.2900001489832 0.0 0.0 0.0 29.17519467508972" Properties=species:S:1:pos:R:3:initial_magmoms:R:1 pbc="T T T"
Si      -0.86962537      -1.83503594       1.16569490       0.00000000
Si      -1.38763108       1.31561299      -1.40405624       0.00000000
Si       1.40405140      -1.38939040      -1.34547245       0.00000000
Si       1.21249729       1.52109505       1.39498276       0.00000000
H        1.85544731       0.66668455       2.44505637       0.00000000
Si       2.71226873       2.60674211      -0.04455052       0.00000000
Si      -2.64953594      -2.72756504      -0.10514740       0.00000000
Si      -2.71564076       2.67501350       0.00825658       0.00000000
Si      -0.00635310       2.65580759      -2.79944745       0.00000000
Si       2.71430498      -0.05323572      -2.78173811       0.00000000
