10
Lattice="16.2900001489832 0.0 0.0 0.0 16.2900001489832 0.0 0.0 0.0 29.17519467508972" Properties=species:S:1:pos:R:3:initial_magmoms:R:1 pbc="T T T"
Si      -1.26345078       1.41881014       1.34265996       0.00000000
Si       1.41587957       1.43744590      -1.17234714       0.00000000
Si       1.42262363      -1.33024141       1.32497980       0.00000000
Si      -1.51195473      -0.98776045      -1.53664583       0.00000000
Si       2.31979539      -0.11676672      -2.62639770       0.00000000
Si       0.27774939      -1.36423864      -3.26034551       0.00000000
Si      -3.25254125       0.79943176      -1.48643532       0.00000000
Si      -2.54516428       2.67747329      -0.17705842       0.00000000
Si      -2.60620291       0.03389949       2.68159134       0.00000000
Si      -2.58849568      -2.70876638      -0.23248546       0.00000000
