10
Lattice="16.2900001489832 0.0 0.0 0.0 16.2900001489832 0.0 0.0 0.0 29.17519467508972" Properties=species:S:1:pos:R:3:initial_magmoms:R:1 pbc="T T T"
Si      -1.09094131      -0.98596855      -0.28512918       0.00000000
H        1.90303040       0.33984198      -1.47352238       0.00000000
H       -0.61757020       0.39768777      -2.35452574       0.00000000
Si      -0.57182788       2.94081744      -0.68590883       0.00000000
Si      -1.52506981      -2.07979319       1.70739074       0.00000000
Si      -0.45525663      -2.33855984      -2.03569921       0.00000000
Si      -3.09342216       0.14410134      -0.55911343       0.00000000
Si       1.57791457       2.75286342       0.51841403       0.00000000
Si       2.90466993       1.17666744      -0.72383658       0.00000000
Si      -2.47406006       2.08750650       0.49819562       0.00000000
