10
Lattice="16.2900001489832 0.0 0.0 0.0 16.2900001489832 0.0 0.0 0.0 29.17519467508972" Properties=species:S:1:pos:R:3:initial_magmoms:R:1 pbc="T T T"
Si      -1.71124823      -1.54427572      -0.32862939       0.00000000
Si       1.52287066      -1.67596409       0.61113280       0.00000000
Si      -0.66272608       1.70963552       1.49026894       0.00000000
Si       0.87938308       0.97541263      -1.96929647       0.00000000
H       -0.77512708      -1.84516832       2.66287837       0.00000000
Si       0.74860696       3.39743754       0.70072983       0.00000000
Si      -2.05403870      -2.15430365       1.95362939       0.00000000
Si      -0.73169794       0.44810532      -3.53652957       0.00000000
Si       2.65531889      -2.14511609      -1.37286796       0.00000000
Si      -0.94943008      -2.98442577      -2.10335648       0.00000000
