10
Lattice="16.2900001489832 0.0 0.0 0.0 16.2900001489832 0.0 0.0 0.0 29.17519467508972" Properties=species:S:1:pos:R:3:initial_magmoms:R:1 pbc="T T T"
H       -1.17204922      -0.96819616      -0.00256742       0.00000000
Si      -0.34394706       0.85204846      -2.21005017       0.00000000
Si       2.02360898      -1.26317548       0.26952045       0.00000000
Si       0.32694030       1.18972387       2.06916316       0.00000000
H       -0.45634806      -2.70275537      -1.03744075       0.00000000
H        1.60234957       1.99526438       1.76553691       0.00000000
Si       0.31877901      -0.85758706      -3.70031912       0.00000000
Si      -1.73525969      -3.01189071      -1.74668973       0.00000000
Si       1.53386641      -0.18145431       3.59998562       0.00000000
Si       3.31999977      -0.53833563       2.09148218       0.00000000
