10
Lattice="16.2900001489832 0.0 0.0 0.0 16.2900001489832 0.0 0.0 0.0 29.17519467508972" Properties=species:S:1:pos:R:3:initial_magmoms:R:1 pbc="T T T"
Si       0.04344543      -2.30417165       0.69579922       0.00000000
Si       2.12318975       0.67313539       0.96038906       0.00000000
Si      -2.22856976       0.00402363      -1.08199127       0.00000000
Si      -1.25651287       1.50762322       1.51973589       0.00000000
Si       0.76383811       0.38779974      -2.34340999       0.00000000
H       -1.06430716       2.68558571      -0.27340075       0.00000000
Si      -2.05130198       2.32670072      -1.39008133       0.00000000
Si       0.28416276      -1.92818216      -2.97158110       0.00000000
Si      -1.03174345       0.11965005       3.40961748       0.00000000
Si      -3.61291026      -0.84012418       0.60033798       0.00000000
