10
Lattice="16.2900001489832 0.0 0.0 0.0 16.2900001489832 0.0 0.0 0.0 29.17519467508972" Properties=species:S:1:pos:R:3:initial_magmoms:R:1 pbc="T T T"
Si       1.23149143      -1.39153091      -1.52358702       0.00000000
Si      -1.35544204       1.36164853      -1.49546213       0.00000000
Si      -1.94888675      -0.83900017       1.25605048       0.00000000
Si       2.02579184       0.80123995       1.34923605       0.00000000
Si       2.50769891      -2.80725573      -0.11252873       0.00000000
Si      -2.75750607      -2.61940596      -0.16317686       0.00000000
Si       2.77426848       2.63687861      -0.01426667       0.00000000
Si      -3.62911881       0.91600300       1.01570523       0.00000000
Si       3.61111836      -1.00768312       1.02556644       0.00000000
Si      -2.75949345       2.75103894      -0.14998968       0.00000000
