10
Lattice="16.2900001489832 0.0 0.0 0.0 16.2900001489832 0.0 0.0 0.0 29.17519467508972" Properties=species:S:1:pos:R:3:initial_magmoms:R:1 pbc="T T T"
Si      -0.50971410       0.54758836       1.31046222       0.00000000
Si       1.62642619       2.05633559      -1.01415894       0.00000000
Si       0.71845417       2.54643653       1.13313539       0.00000000
Si       2.32091777       0.11446983      -2.27222251       0.00000000
H        2.96386779      -0.73994068      -1.22214890       0.00000000
Si       0.36051399      -0.65673136       3.20784183       0.00000000
H        2.99493282      -1.68145382       0.00049598       0.00000000
Si      -2.90199837       1.63857853       0.89159395       0.00000000
Si      -0.20743686       2.74077624      -2.36532056       0.00000000
Si      -2.79568983      -0.31859982      -2.41150489       0.00000000
