10
Lattice="16.2900001489832 0.0 0.0 0.0 16.2900001489832 0.0 0.0 0.0 29.17519467508972" Properties=species:S:1:pos:R:3:initial_magmoms:R:1 pbc="T T T"
Si       1.98812447      -0.92660779      -0.81425051       0.00000000
Si      -0.15569819       2.30053898      -0.48404565       0.00000000
Si      -1.54876036      -0.89174719      -1.55772199       0.00000000
Si      -0.07009261      -0.63420229       2.35618872       0.00000000
H       -2.63424452       0.86327227       0.60468508       0.00000000
Si      -3.39205533       0.04636134      -0.41096179       0.00000000
Si       0.57532208      -2.92281536       2.22358746       0.00000000
Si      -1.80301468      -3.18049547      -1.04205043       0.00000000
Si       2.44496124      -0.02674818      -2.92624285       0.00000000
Si       0.07698980      -3.83554244       0.14581762       0.00000000
