10
Lattice="16.2900001489832 0.0 0.0 0.0 16.2900001489832 0.0 0.0 0.0 29.17519467508972" Properties=species:S:1:pos:R:3:initial_magmoms:R:1 pbc="T T T"
Si      -1.39157326       1.38653965       1.29429916       0.00000000
Si      -1.38953701      -1.27343818      -1.44288843       0.00000000
Si       1.28575342       1.43817895      -1.41931487       0.00000000
Si       1.42991992      -1.33436278       1.47457269       0.00000000
Si       2.68773599      -2.59429655      -0.05607472       0.00000000
Si       0.00604359       2.55834452       2.73890893       0.00000000
Si      -2.69979059      -2.60959286      -0.00662277       0.00000000
Si      -0.02581965      -2.62922231      -2.79250376       0.00000000
Si       2.65103462       0.08654877      -2.79588808       0.00000000
Si       2.67545333       2.78097996      -0.00729380       0.00000000
