10
Lattice="16.2900001489832 0.0 0.0 0.0 16.2900001489832 0.0 0.0 0.0 29.17519467508972" Properties=species:S:1:pos:R:3:initial_magmoms:R:1 pbc="T T T"
Si      -1.33379263      -1.38728899       1.36860838       0.00000000
Si       1.33377634      -1.36031275      -1.41663075       0.00000000
Si      -1.36055710       1.31815423      -1.43906648       0.00000000
Si       1.39373983       1.30823362       1.43153928       0.00000000
Si      -2.72860760       0.00099369       2.62734298       0.00000000
Si      -2.70080057       2.70329294      -0.01029884       0.00000000
Si       2.71857296       2.68855049       0.01412079       0.00000000
Si       2.69286734      -2.73214254       0.04469640       0.00000000
Si      -2.70308117      -2.73471636       0.00341350       0.00000000
Si       0.02950119       2.69200397       2.77403586       0.00000000
