10
Lattice="16.2900001489832 0.0 0.0 0.0 16.2900001489832 0.0 0.0 0.0 29.17519467508972" Properties=species:S:1:pos:R:3:initial_magmoms:R:1 pbc="T T T"
Si      -1.83386306       0.68444065      -1.35116162       0.00000000
Si      -0.90797203       0.49010094       2.14729433       0.00000000
Si       0.69449158      -1.94186576      -1.25806357       0.00000000
Si       1.85302010       1.54756630      -0.23357661       0.00000000
H       -1.62642619      -2.05633559       1.01415894       0.00000000
H        1.33744159      -2.79627627      -0.20798996       0.00000000
Si      -0.54988525       1.92855683      -2.82856430       0.00000000
Si      -2.13614030      -1.50874723       2.32462116       0.00000000
Si       2.19426302      -0.85621870      -2.69759685       0.00000000
Si       0.78161050       3.24845409      -1.44679790       0.00000000
