10
Lattice="16.2900001489832 0.0 0.0 0.0 16.2900001489832 0.0 0.0 0.0 29.17519467508972" Properties=species:S:1:pos:R:3:initial_magmoms:R:1 pbc="T T T"
Si      -1.34636851       1.33245685       1.36992127       0.00000000
Si       1.33151203       1.31251789      -1.42656199       0.00000000
Si      -1.30955311      -1.32600601      -1.44156387       0.00000000
Si       1.40339980      -1.38678400       1.34118370       0.00000000
Si       2.15106194      -0.47610783      -2.75644905       0.00000000
Si       0.41980959      -2.30479067      -2.75100788       0.00000000
Si      -2.69109173       2.69145011       0.01508358       0.00000000
Si       2.72100017       2.68136498      -0.04740969       0.00000000
Si      -2.67573026      -2.75718027      -0.11200357       0.00000000
Si      -2.67214646      -0.01290168       2.76385372       0.00000000
