10
Lattice="16.2900001489832 0.0 0.0 0.0 16.2900001489832 0.0 0.0 0.0 29.17519467508972" Properties=species:S:1:pos:R:3:initial_magmoms:R:1 pbc="T T T"
Si      -1.37049400       1.44244693      -1.31699746       0.00000000
Si      -1.42573339      -1.69666868       0.95986390       0.00000000
Si       1.64616968      -1.32511006      -1.33272289       0.00000000
Si      -0.60308839       1.48975309       2.20220204       0.00000000
H        2.75898846       1.04990680       1.23609465       0.00000000
Si      -2.51765210       0.07040538       2.11861511       0.00000000
H        2.19585944      -1.74731429       2.21407635       0.00000000
Si      -2.39906090       0.08729811      -2.93455778       0.00000000
Si      -3.47504799       1.53285643       0.43826977       0.00000000
H        0.11538207      -1.88102261       3.39643029       0.00000000
