10
Lattice="16.2900001489832 0.0 0.0 0.0 16.2900001489832 0.0 0.0 0.0 29.17519467508972" Properties=species:S:1:pos:R:3:initial_magmoms:R:1 pbc="T T T"
Si      -1.27620748       1.41572482      -1.41105829       0.00000000
Si       1.10341945       1.79957261       1.13809517       0.00000000
Si       1.48442626      -1.31927824      -1.36659529       0.00000000
Si      -1.51239619      -1.29402874       1.55127428       0.00000000
H        1.63680292       1.32776533       2.49523770       0.00000000
Si      -2.54096309      -2.64917756      -0.06628604       0.00000000
Si      -2.50769891       2.80725573       0.11252873       0.00000000
Si      -2.60165963       0.06660981      -2.79746354       0.00000000
Si       0.14810868      -2.65263104      -2.82620111       0.00000000
Si       2.84579787      -2.69161301       0.07261706       0.00000000
