10
Lattice="16.2900001489832 0.0 0.0 0.0 16.2900001489832 0.0 0.0 0.0 29.17519467508972" Properties=species:S:1:pos:R:3:initial_magmoms:R:1 pbc="T T T"
Si       2.14474142       0.99020395      -0.17157932       0.00000000
Si       0.29636397      -2.16764516       0.93462736       0.00000000
Si      -1.44743167      -0.87902959      -1.67535638       0.00000000
Si      -1.09366174       1.73754029       1.24493473       0.00000000
H        1.24457230      -0.82664746      -2.54361017       0.00000000
H       -1.00276354       1.20788722       2.67128082       0.00000000
Si      -2.98320402      -1.41956763       0.08962620       0.00000000
H        1.78295681      -1.33592825      -2.75638487       0.00000000
Si       2.17383536       2.51048450       1.63424853       0.00000000
Si      -1.88955857      -2.77568571       1.63162276       0.00000000
