10
Lattice="16.2900001489832 0.0 0.0 0.0 16.2900001489832 0.0 0.0 0.0 29.17519467508972" Properties=species:S:1:pos:R:3:initial_magmoms:R:1 pbc="T T T"
Si       0.71905690      -2.09314610      -0.75552084       0.00000000
Si      -2.13224699       0.17075178      -0.94985681       0.00000000
Si       1.04220163       1.59601276      -1.40927860       0.00000000
Si       0.25791957       0.44476587       2.33649547       0.00000000
H       -1.83503594      -2.03045729       0.14634278       0.00000000
H        1.80001244       2.41292369      -0.39363173       0.00000000
Si      -1.27703827       2.36108891      -1.71051249       0.00000000
Si       1.29525049      -2.94172968       1.50015933       0.00000000
Si      -0.01630629      -1.73885489       3.17776220       0.00000000
H        0.96332545       3.19697769       1.52431640       0.00000000
