10
Lattice="16.2900001489832 0.0 0.0 0.0 16.2900001489832 0.0 0.0 0.0 29.17519467508972" Properties=species:S:1:pos:R:3:initial_magmoms:R:1 pbc="T T T"
Si      -2.25847820      -0.65689914       0.04247908       0.00000000
Si       0.27422586       2.18362076      -0.84126674       0.00000000
Si       1.15597099       0.12785044       2.11222574       0.00000000
Si       1.31155678      -1.20287479      -1.67760287       0.00000000
Si      -1.69950314      -1.82451748       1.96777936       0.00000000
Si       3.23617143       0.55025503       1.07186748       0.00000000
H       -1.81872965      -0.29160241      -3.03141943       0.00000000
Si       0.57769228      -3.35497929      -1.11163327       0.00000000
Si       2.58514157       2.49223482      -0.26765324       0.00000000
Si      -2.55899612      -1.33449799      -2.18166271       0.00000000
