10
Lattice="16.2900001489832 0.0 0.0 0.0 16.2900001489832 0.0 0.0 0.0 29.17519467508972" Properties=species:S:1:pos:R:3:initial_magmoms:R:1 pbc="T T T"
Si       1.55675386      -1.48319637      -0.97138811       0.00000000
Si      -2.03049965      -1.23953055      -0.00192556       0.00000000
Si       0.87240933       0.84486783       2.06614352       0.00000000
Si      -0.97497280       1.20968727      -1.93947942       0.00000000
Si       2.20284785       2.27731759       0.81346278       0.00000000
Si      -3.05517324       0.78728268      -0.89912115       0.00000000
Si       0.18614909      -2.25610801      -2.71979917       0.00000000
H        1.49188708       3.38006915      -0.36635292       0.00000000
Si       3.20280951      -0.21312044      -2.05769731       0.00000000
Si      -0.67999348      -0.30089194      -3.74790386       0.00000000
