10
Lattice="16.2900001489832 0.0 0.0 0.0 16.2900001489832 0.0 0.0 0.0 29.17519467508972" Properties=species:S:1:pos:R:3:initial_magmoms:R:1 pbc="T T T"
Si      -1.23356026       1.35207001      -1.43369241       0.00000000
Si       1.27628893       1.41009499       1.38644318       0.00000000
Si      -1.40056534      -1.30567609       1.38982750       0.00000000
Si       1.29399616      -1.33257088      -1.52763362       0.00000000
Si      -2.13408776      -0.54376020      -2.54459163       0.00000000
Si       0.62995060       2.17562726      -2.78158348       0.00000000
Si      -0.46582884      -2.40166730      -2.76180270       0.00000000
Si       2.37053711       0.38843505      -2.83179399       0.00000000
Si       2.59571378      -2.67724523      -0.06658363       0.00000000
Si       2.64008238       0.05064561       2.73083615       0.00000000
