10
Lattice="16.2900001489832 0.0 0.0 0.0 16.2900001489832 0.0 0.0 0.0 29.17519467508972" Properties=species:S:1:pos:R:3:initial_magmoms:R:1 pbc="T T T"
Si       1.34557030      -1.32418153      -1.43947493       0.00000000
Si       1.33773481       1.34475580       1.47967835       0.00000000
Si      -1.34325712       1.37339362      -1.46465312       0.00000000
Si      -1.32383944      -1.54681696       1.30672779       0.00000000
Si       2.67926519       2.71472852       0.01674656       0.00000000
Si       2.73828615      -2.66183489      -0.03982414       0.00000000
Si       2.69406453      -0.30467187       2.72111206       0.00000000
Si      -2.72145629      -2.71862183      -0.13788197       0.00000000
Si      -3.06269922      -0.31483683       2.32613827       0.00000000
Si      -2.70749576       2.75716398      -0.12215654       0.00000000
