10
Lattice="16.2900001489832 0.0 0.0 0.0 16.2900001489832 0.0 0.0 0.0 29.17519467508972" Properties=species:S:1:pos:R:3:initial_magmoms:R:1 pbc="T T T"
Si       1.55352844      -0.08865018       1.71135857       0.00000000
Si       0.52160580      -1.47318616      -1.74170077       0.00000000
Si      -2.18592254      -0.60804055       0.69699540       0.00000000
Si      -0.29636397       2.16764516      -0.93462736       0.00000000
Si      -1.74379565       1.28861557      -2.60998374       0.00000000
Si      -3.27956799       0.74807753      -0.84500116       0.00000000
Si      -1.16115121      -1.04720266      -3.35290090       0.00000000
Si      -2.34610211       0.21820455       2.99495043       0.00000000
Si       1.84837745       3.15784911      -1.10620668       0.00000000
Si       0.21509316      -3.70175592      -0.98314571       0.00000000
