10
Lattice="16.2900001489832 0.0 0.0 0.0 16.2900001489832 0.0 0.0 0.0 29.17519467508972" Properties=species:S:1:pos:R:3:initial_magmoms:R:1 pbc="T T T"
Si       0.73386451       2.15210450      -0.56596960       0.00000000
Si       0.64943344      -2.11812356      -0.87067533       0.00000000
Si      -1.97978888       0.02184489      -1.40014677       0.00000000
Si       1.69787414      -0.08796600       2.26527882       0.00000000
H        2.57372228       0.35935740      -1.73887078       0.00000000
Si      -1.11395908      -2.98954083       0.56109734       0.00000000
Si      -3.01894428      -1.76705777      -0.29744111       0.00000000
Si      -0.57769228       3.35497929       1.11163327       0.00000000
Si       2.95345848       2.39465511       0.37507630       0.00000000
Si      -3.13668840       2.02048130      -1.07002944       0.00000000
