10
Lattice="16.2900001489832 0.0 0.0 0.0 16.2900001489832 0.0 0.0 0.0 29.17519467508972" Properties=species:S:1:pos:R:3:initial_magmoms:R:1 pbc="T T T"
Si       1.30171762      -1.34467435       1.46104999       0.00000000
Si      -1.75982501      -1.06909642      -1.23416909       0.00000000
Si      -1.29399616       1.33257088       1.52763362       0.00000000
Si       1.07654095       1.72100594      -1.30416038       0.00000000
Si      -3.42808392       0.78881068      -1.01695801       0.00000000
Si      -2.52755642       2.68464089       0.09394121       0.00000000
Si       2.58849568       2.70876638       0.23248546       0.00000000
Si       2.54171080      -2.78031695       0.05451385       0.00000000
Si      -0.66404557       3.50819814      -1.25394987       0.00000000
Si      -2.80528464      -2.65847590       0.16737517       0.00000000
