10
Lattice="16.2900001489832 0.0 0.0 0.0 16.2900001489832 0.0 0.0 0.0 29.17519467508972" Properties=species:S:1:pos:R:3:initial_magmoms:R:1 pbc="T T T"
Si       1.49473458       1.32601513      -1.21593459       0.00000000
Si       0.86614257      -1.95521606       1.02810469       0.00000000
Si      -0.29497932       1.51057921       1.80842444       0.00000000
Si      -2.21959397      -0.24255061      -0.94104590       0.00000000
H       -0.37973619      -2.03529771      -2.11394708       0.00000000
Si      -1.25558434      -2.48262111       1.89020251       0.00000000
Si       0.99640229       0.41328806      -3.29370443       0.00000000
Si      -0.94600918       3.45255899       0.46890373       0.00000000
Si      -3.53115075       0.96032418       0.73655696       0.00000000
Si       2.23674734      -1.18230443       2.77651575       0.00000000
