10
Lattice="16.2900001489832 0.0 0.0 0.0 16.2900001489832 0.0 0.0 0.0 29.17519467508972" Properties=species:S:1:pos:R:3:initial_magmoms:R:1 pbc="T T T"
Si      -2.08020044      -0.42240459       1.04035827       0.00000000
Si       0.29497932      -1.51057921      -1.80842444       0.00000000
Si      -0.65102986       1.94197979      -1.33952071       0.00000000
Si       0.97497280      -1.20968727       1.93947942       0.00000000
H       -0.59103379       3.17884692      -0.46149323       0.00000000
Si      -1.05552685      -2.44921781       1.93755385       0.00000000
Si      -3.23617143      -0.55025503      -1.07186748       0.00000000
Si       1.78971390      -0.18456407      -3.02435903       0.00000000
H        2.46685988       2.17038188       1.57312650       0.00000000
Si       1.16112189      -3.46579527      -0.78031976       0.00000000
