10
Lattice="16.2900001489832 0.0 0.0 0.0 16.2900001489832 0.0 0.0 0.0 29.17519467508972" Properties=species:S:1:pos:R:3:initial_magmoms:R:1 pbc="T T T"
Si       2.18138415      -0.74098324      -0.31567561       0.00000000
H       -0.29716218      -2.17824995       0.77305513       0.00000000
Si       0.38525850       2.24099903      -0.55106108       0.00000000
Si      -0.71034175      -0.00957852       2.24783205       0.00000000
Si      -1.50260590      -0.91000828      -1.67544390       0.00000000
Si      -1.05497299      -2.99516088      -0.24259174       0.00000000
H       -1.13384917      -1.39419595       2.69100326       0.00000000
Si       0.52541766       1.76287124      -2.85610568       0.00000000
Si       2.41160746       0.18461457      -2.50655768       0.00000000
Si      -2.82287784       0.89521696       1.86301123       0.00000000
