10
Lattice="16.2900001489832 0.0 0.0 0.0 16.2900001489832 0.0 0.0 0.0 29.17519467508972" Properties=species:S:1:pos:R:3:initial_magmoms:R:1 pbc="T T T"
Si      -0.81954991       1.78862573       1.32988706       0.00000000
Si       0.24842250       0.99961957      -2.17599688       0.00000000
Si       1.86083930      -0.88053967       1.28877338       0.00000000
Si      -1.73125235      -1.82868284       0.00544117       0.00000000
Si      -2.15106194       0.47610783       2.75644905       0.00000000
Si       0.61028857      -2.29561940       2.71589553       0.00000000
Si      -3.46061505      -0.84989818       1.31488518       0.00000000
Si       2.27892215       2.23915012      -2.17407132       0.00000000
Si      -2.19566396       3.20585900       0.00493353       0.00000000
Si       3.20288444      -2.19652733      -0.14291761       0.00000000
