10
Lattice="16.2900001489832 0.0 0.0 0.0 16.2900001489832 0.0 0.0 0.0 29.17519467508972" Properties=species:S:1:pos:R:3:initial_magmoms:R:1 pbc="T T T"
Si      -1.33631758      -1.33335280      -1.45960581       0.00000000
Si       1.33006222       1.38926008      -1.43649906       0.00000000
Si       1.36137160      -1.37233477       1.43921235       0.00000000
Si      -1.48442626       1.31927824       1.36659529       0.00000000
Si      -2.66115071      -2.71366967      -0.04218733       0.00000000
Si       2.72892689      -2.68019372      -0.00994874       0.00000000
Si       2.66494303       2.80439846      -0.10077112       0.00000000
Si       2.77128252       0.12538413       2.70518240       0.00000000
Si      -2.76063375       2.73500306      -0.04446300       0.00000000
Si      -2.73971739       0.05343120      -2.80078951       0.00000000
