10
Lattice="16.2900001489832 0.0 0.0 0.0 16.2900001489832 0.0 0.0 0.0 29.17519467508972" Properties=species:S:1:pos:R:3:initial_magmoms:R:1 pbc="T T T"
Si      -0.52160580       1.47318616       1.74170077       0.00000000
Si       2.04610922       0.28442340      -1.14918174       0.00000000
Si      -1.68275702       0.42598350      -1.61120013       0.00000000
Si      -0.30651264      -2.22856976       0.75855506       0.00000000
H        1.67931983      -0.01386279      -2.57730752       0.00000000
H       -0.96428656      -2.94479220      -0.41697188       0.00000000
H        0.96498703       2.30490307      -1.94931146       0.00000000
H        0.42660252       2.81418386      -1.73653676       0.00000000
H        1.11619081      -2.81108388      -1.59932582       0.00000000
Si      -2.26540145       2.76180174      -0.86828297       0.00000000
