10
Lattice="16.2900001489832 0.0 0.0 0.0 16.2900001489832 0.0 0.0 0.0 29.17519467508972" Properties=species:S:1:pos:R:3:initial_magmoms:R:1 pbc="T T T"
Si      -1.55352844       0.08865018      -1.71135857       0.00000000
Si      -0.35859177       1.55280843       1.71307991       0.00000000
Si       0.15447807      -2.12530745       0.97016275       0.00000000
Si       2.20591037       0.59016553      -0.53848657       0.00000000
Si       1.52141271       0.89776146       2.90094796       0.00000000
Si       1.20425944      -1.40745601       2.99918084       0.00000000
Si       3.17322687       1.50666537       1.42856341       0.00000000
Si       2.19532187       1.92380992      -2.43125650       0.00000000
Si      -2.07189254      -3.00201897       1.16064759       0.00000000
Si      -1.03192264      -1.38453598      -3.45305934       0.00000000
