10
Lattice="16.2900001489832 0.0 0.0 0.0 16.2900001489832 0.0 0.0 0.0 29.17519467508972" Properties=species:S:1:pos:R:3:initial_magmoms:R:1 pbc="T T T"
Si       0.80008336      -1.61345935       1.47085548       0.00000000
Si      -1.87067846       1.01832049       1.03767415       0.00000000
Si       0.61590862      -0.86975569      -2.14536877       0.00000000
Si       1.59355297       1.84368593      -0.28982638       0.00000000
Si       1.12440097       1.37798740      -2.73444512       0.00000000
Si       2.24920919      -0.25342353       2.66986583       0.00000000
Si      -0.61102813       2.46946628       2.43024120       0.00000000
Si      -2.47593341       0.47851875      -2.56417868       0.00000000
Si       1.70399918      -3.16767198       0.01680491       0.00000000
Si       2.81929404      -1.75588283      -1.56676630       0.00000000
