10
Lattice="16.2900001489832 0.0 0.0 0.0 16.2900001489832 0.0 0.0 0.0 29.17519467508972" Properties=species:S:1:pos:R:3:initial_magmoms:R:1 pbc="T T T"
H       -0.85903524       0.81254521       0.94752280       0.00000000
Si       1.26779044       1.33175752      -1.51235457       0.00000000
Si      -1.40991092      -1.49771890      -1.26597005       0.00000000
Si       1.95985480      -0.74406205       1.23163084       0.00000000
H       -1.63862252      -0.49267476       2.76577928       0.00000000
Si       2.76060605      -2.59356350      -0.00113783       0.00000000
Si       2.56566362       2.78867535      -0.25615821       0.00000000
H       -2.61890586       2.52165944       1.15665059       0.00000000
Si       3.54806466       1.11040786       1.01512172       0.00000000
Si      -2.77128252      -0.12538413      -2.70518240       0.00000000
