10
Lattice="16.2900001489832 0.0 0.0 0.0 16.2900001489832 0.0 0.0 0.0 29.17519467508972" Properties=species:S:1:pos:R:3:initial_magmoms:R:1 pbc="T T T"
Si      -1.74828191      -1.31893615      -0.83178480       0.00000000
Si       0.92344101       1.03443130      -1.89796311       0.00000000
Si      -0.92068149       1.71471800       1.36612849       0.00000000
Si       1.55256082      -1.55633032       0.95239506       0.00000000
H       -2.16656025       1.63463635      -1.77592328       0.00000000
Si      -2.04777356      -2.45579897       1.12266149       0.00000000
Si      -1.10757503       1.77800465      -2.85744774       0.00000000
Si      -0.86524499      -2.58932810      -2.66439548       0.00000000
Si       3.39298874      -1.83668123      -0.49160203       0.00000000
Si      -3.04240839       1.18731295       2.22822632       0.00000000
