10
Lattice="16.2900001489832 0.0 0.0 0.0 16.2900001489832 0.0 0.0 0.0 29.17519467508972" Properties=species:S:1:pos:R:3:initial_magmoms:R:1 pbc="T T T"
Si       0.74298691       1.33656193      -1.77539812       0.00000000
Si      -1.96584464      -1.15540736      -0.56944145       0.00000000
Si      -0.27178236       1.62733843       1.69070253       0.00000000
Si       1.91700722      -1.33165050       0.52748752       0.00000000
Si       2.01766313       2.01349289       1.49038564       0.00000000
Si       2.84405484       1.67229884      -0.72640400       0.00000000
Si      -1.95525614      -2.48905175       1.32332848       0.00000000
Si      -0.72944992       3.15555222      -1.43670329       0.00000000
Si       1.29764512      -3.27505566      -0.52982154       0.00000000
Si      -1.87631806       3.01099476       0.69754973       0.00000000
