10
Lattice="16.2900001489832 0.0 0.0 0.0 16.2900001489832 0.0 0.0 0.0 29.17519467508972" Properties=species:S:1:pos:R:3:initial_magmoms:R:1 pbc="T T T"
Si      -1.98812447       0.92660779       0.81425051       0.00000000
Si       0.45683676       0.89985961      -2.11199234       0.00000000
Si       1.95111848       0.30722940       1.26646603       0.00000000
Si      -0.25932051      -2.30003073      -0.51231642       0.00000000
Si       3.45633078      -0.08433333      -0.51155786       0.00000000
Si      -1.91113467      -2.90893465       0.96006813       0.00000000
Si      -3.53688483       0.03486060      -0.74347149       0.00000000
Si      -2.05821708       0.29240550       3.17043923       0.00000000
Si       2.74628226       1.28601406      -2.31230923       0.00000000
Si       1.61139052      -3.52904934       0.11095327       0.00000000
