10
Lattice="16.2900001489832 0.0 0.0 0.0 16.2900001489832 0.0 0.0 0.0 29.17519467508972" Properties=species:S:1:pos:R:3:initial_magmoms:R:1 pbc="T T T"
Si      -1.48494754       1.11563695       1.42118208       0.00000000
Si      -1.50946399      -1.18887679      -1.33374402       0.00000000
Si       1.18846954       1.58698810      -1.24744380       0.00000000
Si       2.51647922       0.22758759      -2.65975662       0.00000000
Si      -0.16433352      -2.51128271      -2.71679413       0.00000000
H        2.79568983       0.31859982       2.41150489       0.00000000
Si      -2.71886944      -2.50932791       0.23955752       0.00000000
Si      -3.33292589      -0.57269125       1.56950877       0.00000000
Si      -0.10630854       1.95717836       3.30309884       0.00000000
Si      -2.68590989       2.81579169       0.15343235       0.00000000
