10
Lattice="16.2900001489832 0.0 0.0 0.0 16.2900001489832 0.0 0.0 0.0 29.17519467508972" Properties=species:S:1:pos:R:3:initial_magmoms:R:1 pbc="T T T"
Si       1.94390201      -0.76549969       1.01007441       0.00000000
Si      -1.75254012      -1.54764775       0.01750512       0.00000000
Si       0.30028986       0.35367219      -2.30764120       0.00000000
Si      -0.63899155       1.89416864       1.26086439       0.00000000
Si      -1.80732665       3.09871641      -0.37951093       0.00000000
Si       1.57307644       2.30940074      -2.33821680       0.00000000
Si      -3.63872991       0.03060891      -0.33204289       0.00000000
Si      -1.82489867       1.00812295       3.12953561       0.00000000
Si      -0.98663970      -3.41687640      -1.22696281       0.00000000
Si       1.46794078      -1.28635615       3.22838117       0.00000000
