10
Lattice="16.2900001489832 0.0 0.0 0.0 16.2900001489832 0.0 0.0 0.0 29.17519467508972" Properties=species:S:1:pos:R:3:initial_magmoms:R:1 pbc="T T T"
Si       1.36759438      -1.29513646       1.46189607       0.00000000
Si      -1.36106209       1.37749870       1.41739806       0.00000000
Si       1.37842723       1.47625015      -1.30788313       0.00000000
Si      -1.39706299      -1.32411637      -1.45151262       0.00000000
Si      -2.17215749       0.36048141      -2.97235716       0.00000000
Si       2.70901073      -2.64697841       0.02521904       0.00000000
Si      -2.80494906      -2.59199966       0.03018466       0.00000000
Si       2.73432539       2.70958740       0.18366952       0.00000000
Si      -0.00402363      -2.63762795       2.86974217       0.00000000
Si      -2.85650203       2.68854561       0.06517447       0.00000000
