10
Lattice="16.28999089631971 0.0 0.0 0.0 16.28999089631971 0.0 0.0 0.0 34.53561885213415" Properties=species:S:1:pos:R:3:initial_magmoms:R:1 pbc="T T T"
Si      -1.35689184      -1.35596820       1.35735419       0.00000000
Si       1.35749457      -1.35663283      -1.35700883       0.00000000
Si       1.35830907       1.35679410       1.35749233       0.00000000
Si      -1.35765747       1.35816246      -1.35697429       0.00000000
Si      -0.00120546       2.71322982      -2.71443209       0.00000000
Si       2.71440270       0.00127062      -2.71356870       0.00000000
Si       0.00026064      -2.71148254       2.71660783       0.00000000
Si       2.71420722      -2.71399219       0.00000000       0.00000000
Si       2.71467963      -0.00029322       2.71398312       0.00000000
Si      -2.71474479      -2.71400342       0.00037989       0.00000000
