10
Lattice="16.28999089631971 0.0 0.0 0.0 16.28999089631971 0.0 0.0 0.0 34.53561885213415" Properties=species:S:1:pos:R:3:initial_magmoms:R:1 pbc="T T T"
Si      -1.41004611       1.03387743       1.53897711       0.00000000
Si       1.91917377      -0.69124986       1.24459533       0.00000000
Si       0.62221284       1.92841020      -1.43903097       0.00000000
Si      -1.79755263      -1.41491030      -1.03144137       0.00000000
Si      -2.16855738      -2.72215006       0.93660651       0.00000000
Si      -1.02148074      -1.92916606       2.89325762       0.00000000
Si       2.60162703       2.58854616      -0.37060193       0.00000000
Si       3.40602723      -1.39511307      -0.53561321       0.00000000
Si       2.27053278       1.07957088       2.78937442       0.00000000
Si       1.31315319       0.76031946      -3.46005652       0.00000000
