10
Lattice="16.28999089631971 0.0 0.0 0.0 16.28999089631971 0.0 0.0 0.0 34.53561885213415" Properties=species:S:1:pos:R:3:initial_magmoms:R:1 pbc="T T T"
Si       1.41004611      -1.03387743      -1.53897711       0.00000000
Si      -0.09666486      -0.42321420       2.29326998       0.00000000
Si      -2.23519977      -0.09063756      -0.78281931       0.00000000
Si       0.73609623       2.23267482       0.39829951       0.00000000
Si       0.38856537      -2.96304349       1.35428051       0.00000000
Si      -0.11675043       2.03090688       2.58406005       0.00000000
Si      -0.54762093       3.23659494      -1.28348246       0.00000000
Si      -0.38750652      -2.44878773      -2.57041848       0.00000000
Si      -2.70164763       2.20095819      -1.14772286       0.00000000
Si       2.03225895       0.89453277      -2.97800808       0.00000000
