10
Lattice="16.28999089631971 0.0 0.0 0.0 16.28999089631971 0.0 0.0 0.0 34.53561885213415" Properties=species:S:1:pos:R:3:initial_magmoms:R:1 pbc="T T T"
Si      -1.35695700      -1.35702216       1.35749233       0.00000000
Si       1.35843939       1.35767376       1.35801036       0.00000000
Si       1.35870003      -1.35632169      -1.35949540       0.00000000
Si      -1.35778779       1.35940050      -1.35977168       0.00000000
Si       2.71454931       2.71379997       0.00172678       0.00000000
Si      -2.71482624      -2.71469592       0.00093246       0.00000000
Si       0.00043983      -2.71427238       2.71564083       0.00000000
Si       2.71441899      -2.71554300       0.00072525       0.00000000
Si      -2.71453302       0.00024435       2.71567537       0.00000000
Si       0.00021177       2.71570590       2.71498466       0.00000000
