10
Lattice="16.28999089631971 0.0 0.0 0.0 16.28999089631971 0.0 0.0 0.0 34.53561885213415" Properties=species:S:1:pos:R:3:initial_magmoms:R:1 pbc="T T T"
Si       1.34511417       1.36213722      -1.38926512       0.00000000
Si      -1.37137365      -1.34879571      -1.39178622       0.00000000
Si      -1.32910110       1.45658664       1.37555447       0.00000000
Si       1.39473351      -1.54300509       1.52657881       0.00000000
Si      -2.36982033      -0.04305447       2.98104721       0.00000000
Si       2.70236439       2.71873584      -0.00055257       0.00000000
Si       2.70752832      -2.71915938      -0.03001147       0.00000000
Si      -2.73476520      -2.69355150      -0.02320795       0.00000000
Si       2.70239697       0.00663003      -2.74993472       0.00000000
Si      -0.01355328      -2.70835911      -2.74920948       0.00000000
