10
Lattice="16.28999089631971 0.0 0.0 0.0 16.28999089631971 0.0 0.0 0.0 34.53561885213415" Properties=species:S:1:pos:R:3:initial_magmoms:R:1 pbc="T T T"
Si       1.04071923       1.49964111      -1.60549275       0.00000000
Si      -1.04148486       0.91738764       2.00824736       0.00000000
Si      -1.67238027      -1.33540533      -1.46634866       0.00000000
Si      -2.06767341      -2.71666701       0.55944280       0.00000000
Si      -1.89794790      -1.36321236       2.66024567       0.00000000
Si       1.97434800       3.13224120      -0.15882940       0.00000000
Si       2.36982033       0.04305447      -2.98104721       0.00000000
Si       2.44752363       2.14935147       2.29872661       0.00000000
Si       2.50940934      -3.13854543      -0.12543344       0.00000000
Si      -0.36494487      -2.65049703      -3.00425516       0.00000000
