10
Lattice="16.28999089631971 0.0 0.0 0.0 16.28999089631971 0.0 0.0 0.0 34.53561885213415" Properties=species:S:1:pos:R:3:initial_magmoms:R:1 pbc="T T T"
Si       1.17110439      -0.76111767       1.85183545       0.00000000
Si      -1.07978265      -2.11967109      -0.23000735       0.00000000
Si      -1.62541620       1.72716354       0.33996882       0.00000000
Si       1.95014106       0.46299438      -1.36360514       0.00000000
Si       2.94125724      -1.90006560       0.83334495       0.00000000
Si      -2.88107546       1.47347937      -1.69490551       0.00000000
Si       1.90539243      -1.32063030      -2.91259758       0.00000000
Si       2.21918670       1.01053386       2.94291987       0.00000000
Si      -0.47032488       3.68022051       1.12503295       0.00000000
Si       0.18163350      -2.49482979       3.01005715       0.00000000
