10
Lattice="16.28999089631971 0.0 0.0 0.0 16.28999089631971 0.0 0.0 0.0 34.53561885213415" Properties=species:S:1:pos:R:3:initial_magmoms:R:1 pbc="T T T"
Si      -1.83679524      -1.05568974      -1.05178286       0.00000000
Si       1.13841036      -1.34921925       1.61985957       0.00000000
Si      -1.54839708       1.33025769       1.48306391       0.00000000
Si       1.62271206       0.91093680      -1.88851230       0.00000000
Si      -2.10230595       2.18362563      -0.69468436       0.00000000
Si      -0.11230326       2.48865588      -2.40557988       0.00000000
Si       2.23573734       0.24666318       2.96526930       0.00000000
Si      -1.12718655      -1.63872513      -3.28247426       0.00000000
Si      -0.52831728      -2.54262465       2.84972687       0.00000000
Si      -3.69695034       0.44499393      -1.07267692       0.00000000
