10
Lattice="16.28999089631971 0.0 0.0 0.0 16.28999089631971 0.0 0.0 0.0 34.53561885213415" Properties=species:S:1:pos:R:3:initial_magmoms:R:1 pbc="T T T"
Si      -1.51037622       1.53961677       0.96254277       0.00000000
Si      -1.62137628      -1.84358817       0.37833792       0.00000000
Si       0.43096824       0.81256149      -2.34424458       0.00000000
Si       2.06304705      -0.12618234       1.43992890       0.00000000
Si      -0.40742919       3.01444579      -2.08135930       0.00000000
Si      -0.38372724       3.27469303       1.88516234       0.00000000
Si       1.85732064      -2.14179291       2.59607846       0.00000000
Si       0.73964745       3.80742979      -0.12470819       0.00000000
Si      -2.97389588      -1.13130792       2.26477808       0.00000000
Si      -0.46762074      -3.92865930       0.26723677       0.00000000
