10
Lattice="16.28999089631971 0.0 0.0 0.0 16.28999089631971 0.0 0.0 0.0 34.53561885213415" Properties=species:S:1:pos:R:3:initial_magmoms:R:1 pbc="T T T"
Si      -0.83839743       2.20188430       0.26288528       0.00000000
Si      -1.34666172      -1.16304084      -1.76000519       0.00000000
Si      -0.43096824      -0.81256149       2.34424458       0.00000000
Si       2.14234677       0.06892299      -1.46952594       0.00000000
Si       0.30867921       2.99486830       2.21953639       0.00000000
Si      -1.94134446       0.72705528       3.30678735       0.00000000
Si      -0.46739268       3.50912405      -1.70516260       0.00000000
Si      -3.22036195       2.28572713       0.59919332       0.00000000
Si      -3.56967005      -0.10842624      -1.97851217       0.00000000
Si       1.63207881      -0.93874383       3.78417348       0.00000000
