10
Lattice="16.28999089631971 0.0 0.0 0.0 16.28999089631971 0.0 0.0 0.0 34.53561885213415" Properties=species:S:1:pos:R:3:initial_magmoms:R:1 pbc="T T T"
Si      -1.35597960       1.35550393       1.35721604       0.00000000
Si      -1.35645201      -1.35819504      -1.35676708       0.00000000
Si       1.35917244       1.35646504      -1.35697429       0.00000000
Si       1.35749457      -1.35664583       1.36267267       0.00000000
Si      -2.71235016       2.71259125       0.00072525       0.00000000
Si      -2.71316466      -0.00083568      -2.71377591       0.00000000
Si       0.00153126       2.71391074      -2.71332695       0.00000000
Si       2.71652040      -0.00032906      -2.71360323       0.00000000
Si      -2.70790299      -0.00609083       2.72289332       0.00000000
Si      -2.71412577      -2.71679148       0.00048350       0.00000000
