10
Lattice="16.28999089631971 0.0 0.0 0.0 16.28999089631971 0.0 0.0 0.0 34.53561885213415" Properties=species:S:1:pos:R:3:initial_magmoms:R:1 pbc="T T T"
Si      -0.09321138       0.40933512      -2.28940199       0.00000000
Si      -1.12049136       1.76904513       1.07588874       0.00000000
Si      -0.72917298      -2.19545936       0.50093943       0.00000000
Si       2.31863715      -0.23987025       0.44609684       0.00000000
Si      -0.69913422       0.58648887       3.05567873       0.00000000
Si       1.28568825      -1.65911369      -2.61983897       0.00000000
Si      -1.18970757      -1.64761132       2.69277824       0.00000000
Si       2.66781330      -2.29442111      -0.65148028       0.00000000
Si       3.40811235       1.21865490      -1.06231623       0.00000000
Si      -2.20426506      -0.45767244      -3.04756285       0.00000000
