10
Lattice="16.28999089631971 0.0 0.0 0.0 16.28999089631971 0.0 0.0 0.0 34.53561885213415" Properties=species:S:1:pos:R:3:initial_magmoms:R:1 pbc="T T T"
Si       2.12781609       0.49240435       0.80288452       0.00000000
Si       0.69532236      -2.18919748      -0.63169136       0.00000000
Si      -0.08819406       1.41140470      -1.96569945       0.00000000
Si      -1.95313842      -0.35594302       1.40615304       0.00000000
Si       3.38830371       0.18553333      -1.19196302       0.00000000
Si       2.22026184      -1.66817812      -2.30173121       0.00000000
Si      -1.33222878      -3.27429067      -1.08911588       0.00000000
Si      -2.51131527      -2.62845733       0.91757737       0.00000000
Si      -2.13183972       0.87753253      -2.98001114       0.00000000
Si      -3.70185363       0.85185949       0.52905144       0.00000000
