10
Lattice="16.28999089631971 0.0 0.0 0.0 16.28999089631971 0.0 0.0 0.0 34.53561885213415" Properties=species:S:1:pos:R:3:initial_magmoms:R:1 pbc="T T T"
Si       1.23408153       2.00766105       0.05812348       0.00000000
Si      -2.12206572       0.31110642      -1.11066612       0.00000000
Si       1.55893671      -1.77897293      -0.52794630       0.00000000
Si      -0.88969464       0.42771024       2.21696836       0.00000000
Si       2.11432797      -2.25941390       1.81173958       0.00000000
Si      -0.22289607       3.57241329      -0.89682145       0.00000000
Si      -2.50618392       2.72982933      -0.63587017       0.00000000
Si      -1.77046236      -0.61873981      -3.34809198       0.00000000
Si       0.45312264      -3.87461627      -0.96879372       0.00000000
Si      -3.91458474      -1.15311209      -0.26181467       0.00000000
