10
Lattice="16.28999089631971 0.0 0.0 0.0 16.28999089631971 0.0 0.0 0.0 34.53561885213415" Properties=species:S:1:pos:R:3:initial_magmoms:R:1 pbc="T T T"
Si      -1.34169327       1.30983003      -1.39695966       0.00000000
Si       1.34837217       1.36456443       1.36262087       0.00000000
Si      -1.36845774      -1.35026181       1.35802763       0.00000000
Si       1.31900130      -1.49537313      -1.30808219       0.00000000
Si      -2.43902025      -0.28605240      -2.74236939       0.00000000
Si       2.70023040       2.70744687      -0.01234994       0.00000000
Si       2.70313002       0.00503361       2.71904260       0.00000000
Si       2.70868491      -2.71808424       0.03711890       0.00000000
Si      -0.01045818      -2.70936909       2.71855910       0.00000000
Si      -2.71821456       2.71748151      -0.00976668       0.00000000
