10
Lattice="16.28999089631971 0.0 0.0 0.0 16.28999089631971 0.0 0.0 0.0 34.53561885213415" Properties=species:S:1:pos:R:3:initial_magmoms:R:1 pbc="T T T"
Si       1.38968361      -1.22271111       1.34520110       0.00000000
Si      -1.31900130       1.49537313       1.30808219       0.00000000
Si       1.72848303       0.83906532      -1.43853508       0.00000000
Si      -1.05549426      -1.79126469      -1.24181555       0.00000000
Si      -2.00826378      -0.06823881      -2.61043289       0.00000000
Si       0.30820680       0.09438426      -3.33840960       0.00000000
Si       2.63145402      -2.56363875      -0.06000567       0.00000000
Si       0.03248226      -2.57181633       2.67077213       0.00000000
Si      -2.68745904       0.14511132       2.66610982       0.00000000
Si       2.64512133       2.74804155      -0.14662451       0.00000000
