10
Lattice="16.28999089631971 0.0 0.0 0.0 16.28999089631971 0.0 0.0 0.0 34.53561885213415" Properties=species:S:1:pos:R:3:initial_magmoms:R:1 pbc="T T T"
Si      -0.80923833      -2.20180527      -0.22030284       0.00000000
Si      -1.53531621       0.58940478       1.72191238       0.00000000
Si       0.46651302       1.51848864      -1.81111794       0.00000000
Si       2.34660708      -0.67206024       0.33219830       0.00000000
Si       0.67258152      -2.54716956      -2.04326650       0.00000000
Si       0.02176344       0.44023725       3.47331820       0.00000000
Si       2.11198221       2.93596299      -0.87900106       0.00000000
Si       2.93303079      -2.06387784      -1.47045840       0.00000000
Si      -0.72104427      -3.61320997       1.74539662       0.00000000
Si       1.86465114      -1.04790312       3.48550928       0.00000000
