10
Lattice="16.28999089631971 0.0 0.0 0.0 16.28999089631971 0.0 0.0 0.0 34.53561885213415" Properties=species:S:1:pos:R:3:initial_magmoms:R:1 pbc="T T T"
Si       1.35767376       1.35640314      -1.35714697       0.00000000
Si      -1.35685926       1.35729909       1.35780315       0.00000000
Si       1.35778779      -1.35814617       1.35697429       0.00000000
Si      -1.35801585      -1.35871632      -1.35714697       0.00000000
Si       2.71306692      -0.00210141       2.71419034       0.00000000
Si      -2.71399545       2.71450044       0.00013814       0.00000000
Si      -2.71458189      -2.71515204      -0.00020721       0.00000000
Si       0.00118917       2.71495656       2.71529548       0.00000000
Si       2.71562445       2.71485882      -0.00027629       0.00000000
Si       2.71730232       0.00021177      -2.71332695       0.00000000
