10
Lattice="16.28999089631971 0.0 0.0 0.0 16.28999089631971 0.0 0.0 0.0 34.53561885213415" Properties=species:S:1:pos:R:3:initial_magmoms:R:1 pbc="T T T"
Si      -1.34578206      -0.86912037       1.82769504       0.00000000
Si       1.36713825      -1.80496458       0.91602327       0.00000000
Si      -1.62926064      -0.80772336      -1.90474405       0.00000000
Si       0.93568131       1.93774437      -1.95157438       0.00000000
Si       2.71844262      -2.34509211      -0.90873625       0.00000000
Si      -2.88440514      -2.44631817      -0.57570909       0.00000000
Si      -1.25426484       0.51567624       3.71441149       0.00000000
Si       2.64347604       2.90639664      -0.62036367       0.00000000
Si      -0.31646583      -1.98387765      -3.46133433       0.00000000
Si       1.78129521       3.19039650       1.72643655       0.00000000
