10
Lattice="16.28999089631971 0.0 0.0 0.0 16.28999089631971 0.0 0.0 0.0 34.53561885213415" Properties=species:S:1:pos:R:3:initial_magmoms:R:1 pbc="T T T"
Si      -1.35725022      -1.35659862      -1.38871255       0.00000000
Si       1.35524655       1.36198643      -1.38809090       0.00000000
Si      -1.36739889       1.40115945       1.47259961       0.00000000
Si       1.25731107      -1.51627320       1.48030106       0.00000000
Si       2.69850366      -2.71643895      -0.01968531       0.00000000
Si      -2.70236439      -2.71873584       0.00055257       0.00000000
Si      -2.71015101       2.71254142      -0.02787026       0.00000000
Si       2.71127502       2.71859479      -0.01377972       0.00000000
Si       0.00003258      -2.71210581      -2.74938215       0.00000000
Si       2.71518462       0.00171045      -2.74969297       0.00000000
