10
Lattice="16.28999089631971 0.0 0.0 0.0 16.28999089631971 0.0 0.0 0.0 34.53561885213415" Properties=species:S:1:pos:R:3:initial_magmoms:R:1 pbc="T T T"
Si       0.57142062       1.48853133       1.72474430       0.00000000
Si      -1.21518513      -1.72856448       1.06590794       0.00000000
Si       1.76671566      -0.70266915      -1.62341674       0.00000000
Si      -0.54389052       1.63128060      -1.92332422       0.00000000
Si       0.92896983      -2.95409376      -1.39216611       0.00000000
Si       0.21740634      -3.59947098       0.81438488       0.00000000
Si      -1.69741800      -0.78185484       3.19851813       0.00000000
Si       0.49425489       0.18933867       3.68747369       0.00000000
Si      -3.57945057      -1.04343966       0.06465071       0.00000000
Si       2.19444219       2.90571246       0.85496426       0.00000000
