10
Lattice="16.28999089631971 0.0 0.0 0.0 16.28999089631971 0.0 0.0 0.0 34.53561885213415" Properties=species:S:1:pos:R:3:initial_magmoms:R:1 pbc="T T T"
Si      -0.32878107      -0.19986201       2.39107491       0.00000000
Si       0.25671411       2.38614521      -0.40551746       0.00000000
Si       2.39045976      -0.72503532      -0.78772337       0.00000000
Si      -2.33712630      -1.07385309      -0.66570896       0.00000000
Si      -1.23013935       3.09000842       1.37469108       0.00000000
Si       1.73180619       0.64835829       3.14298482       0.00000000
Si      -0.64510029      -3.39975558       1.20025157       0.00000000
Si      -1.83365127       1.47173375       3.02407862       0.00000000
Si       3.74666742       1.18470395       0.02220642       0.00000000
Si       2.93435028      -2.35631592       1.13560085       0.00000000
