10
Lattice="16.28999089631971 0.0 0.0 0.0 16.28999089631971 0.0 0.0 0.0 34.53561885213415" Properties=species:S:1:pos:R:3:initial_magmoms:R:1 pbc="T T T"
Si       1.68876801       0.94249053       1.31045330       0.00000000
Si      -0.90647334      -1.82136861       1.15068799       0.00000000
Si       1.40760261       0.53364411      -1.81447425       0.00000000
Si      -1.99818027       1.71486459       0.12864342       0.00000000
Si      -0.47589606       1.38808719      -2.91882035       0.00000000
Si      -2.49737103       0.59906475      -2.07166115       0.00000000
Si      -2.25390069      -0.45543582       2.68697822       0.00000000
Si       2.44568286       2.56126041      -0.22635293       0.00000000
Si       0.44699760       2.28341817       2.71566007       0.00000000
Si      -0.94268601       3.50612928       1.37045898       0.00000000
