10
Lattice="16.28999089631971 0.0 0.0 0.0 16.28999089631971 0.0 0.0 0.0 34.53561885213415" Properties=species:S:1:pos:R:3:initial_magmoms:R:1 pbc="T T T"
Si       0.90647334       1.82136861      -1.15068799       0.00000000
Si       1.36870209      -1.30216195       1.50222083       0.00000000
Si      -1.34742735       1.36593279       1.53629023       0.00000000
Si      -0.71065125      -1.84664159      -1.46873304       0.00000000
Si      -2.62682766      -2.57350139      -0.11135671       0.00000000
Si       2.59524135       2.76385914       0.15976532       0.00000000
Si      -2.77107561       2.60825706       0.24782774       0.00000000
Si      -1.09170693       3.53623320      -1.02204457       0.00000000
Si       2.98813986      -2.49076448      -0.05550222       0.00000000
Si       1.04254371      -3.63989366      -1.00875422       0.00000000
