10
Lattice="16.28999089631971 0.0 0.0 0.0 16.28999089631971 0.0 0.0 0.0 34.53561885213415" Properties=species:S:1:pos:R:3:initial_magmoms:R:1 pbc="T T T"
Si      -0.44738856       0.24751678       2.26702290       0.00000000
Si      -1.80014274      -1.06392663      -1.12275360       0.00000000
Si       1.07599085       1.89985057      -1.02018275       0.00000000
Si       1.82045867      -1.85623965       0.27089755       0.00000000
Si       1.79569787      -0.50879860       2.70175751       0.00000000
Si      -0.36567792      -2.28712644      -2.48228353       0.00000000
Si       2.36101300       0.45433950      -2.44892210       0.00000000
Si       0.80868447      -3.65468823      -0.97590806       0.00000000
Si       3.69148409      -0.91842122      -0.93184059       0.00000000
Si      -3.08566809       0.44220345      -2.45099424       0.00000000
