10
Lattice="16.28999089631971 0.0 0.0 0.0 16.28999089631971 0.0 0.0 0.0 34.53561885213415" Properties=species:S:1:pos:R:3:initial_magmoms:R:1 pbc="T T T"
Si       2.16666841      -0.71083044       0.57660701       0.00000000
Si      -1.08947520      -1.45852515       1.50841307       0.00000000
Si      -1.07645949       0.05460408      -2.10480900       0.00000000
Si      -0.07869699       2.32759665       0.45507610       0.00000000
Si      -0.23200218      -1.99997869      -2.82152710       0.00000000
Si       1.93618935      -0.32850414       2.95890987       0.00000000
Si      -0.74029905      -3.51307601       0.41083595       0.00000000
Si      -0.96661602       2.44367919       2.64014593       0.00000000
Si       3.62634038       0.66202560      -0.69347561       0.00000000
Si      -3.40811235      -1.21865490       1.06231623       0.00000000
