10
Lattice="16.28999089631971 0.0 0.0 0.0 16.28999089631971 0.0 0.0 0.0 34.53561885213415" Properties=species:S:1:pos:R:3:initial_magmoms:R:1 pbc="T T T"
Si      -1.35739520       1.35775521      -1.35756140       0.00000000
Si       1.35780408      -1.35757602      -1.35745779       0.00000000
Si       1.35752715       1.35666378       1.35908097       0.00000000
Si      -1.35799793      -1.35840681       1.35797583       0.00000000
Si       2.71425609      -0.00250866      -2.71491559       0.00000000
Si      -2.71448602       2.71484253      -0.00027629       0.00000000
Si      -0.00004887       2.71489140      -2.71457023       0.00000000
Si      -2.71491488       0.00433314       2.71470837       0.00000000
Si      -2.71395656      -2.71568961      -0.00034536       0.00000000
Si       2.71521720       2.71531494       0.00013814       0.00000000
