10
Lattice="16.28999089631971 0.0 0.0 0.0 16.28999089631971 0.0 0.0 0.0 34.53561885213415" Properties=species:S:1:pos:R:3:initial_magmoms:R:1 pbc="T T T"
Si      -1.26048762       0.30687102       1.99484753       0.00000000
Si       2.10994596      -0.48095899       1.03189033       0.00000000
Si       0.26577135       1.36379880      -2.02389200       0.00000000
Si      -1.16804187      -1.85371145      -1.10976820       0.00000000
Si      -0.32065236       2.75561640      -0.22123530       0.00000000
Si      -1.99467792       0.88050708      -2.59670010       0.00000000
Si      -3.38830371      -0.18553333       1.19196302       0.00000000
Si      -2.69298135      -2.37473081       0.56027166       0.00000000
Si       2.05556994      -0.00917127      -3.05025663       0.00000000
Si      -0.45838431      -1.42532450       3.36346034       0.00000000
