10
Lattice="16.28999089631971 0.0 0.0 0.0 16.28999089631971 0.0 0.0 0.0 34.53561885213415" Properties=species:S:1:pos:R:3:initial_magmoms:R:1 pbc="T T T"
Si      -1.88349867       0.85444308      -1.10434610       0.00000000
Si      -1.40760261      -0.53364411       1.81447425       0.00000000
Si       1.49271786      -1.36453185      -1.42072708       0.00000000
Si       1.03808025       2.02761630       1.58812132       0.00000000
Si       0.28116540       0.40884642       3.12492756       0.00000000
Si       1.78499746       0.26622747      -3.20369847       0.00000000
Si      -2.04208182       3.06686943      -0.15347638       0.00000000
Si      -0.25102890       1.36782243      -3.41847561       0.00000000
Si      -3.90497364       0.06542064      -0.25718690       0.00000000
Si      -3.40578288       1.18122048       1.94311767       0.00000000
