10
Lattice="16.28999089631971 0.0 0.0 0.0 16.28999089631971 0.0 0.0 0.0 34.53561885213415" Properties=species:S:1:pos:R:3:initial_magmoms:R:1 pbc="T T T"
Si      -1.35746199       1.35317772      -1.35797583       0.00000000
Si       1.34546345       1.33597548       1.38878162       0.00000000
Si       1.35691695      -1.36273995      -1.35673254       0.00000000
Si      -1.36515087      -1.35542574       1.37928432       0.00000000
Si      -0.26075403       2.52014445       2.78308894       0.00000000
Si      -2.71456560       2.70989037       0.00165771       0.00000000
Si       0.00042885       2.71050939      -2.71498466       0.00000000
Si       2.71594115       2.71345788       0.00421335       0.00000000
Si       2.71491488      -0.00433314      -2.71470837       0.00000000
Si      -2.71494027      -0.00389331      -2.71508826       0.00000000
