10
Lattice="16.28999089631971 0.0 0.0 0.0 16.28999089631971 0.0 0.0 0.0 34.53561885213415" Properties=species:S:1:pos:R:3:initial_magmoms:R:1 pbc="T T T"
Si      -0.74368737      -1.88366157      -1.23364753       0.00000000
Si       1.93386735       0.74837889      -1.20184021       0.00000000
Si      -1.55201346       1.92461463      -0.06945117       0.00000000
Si       0.71669484      -1.81061721       1.62659402       0.00000000
Si       2.57071905       1.03749381       1.16174433       0.00000000
Si      -1.87191648      -0.43132662      -2.65755189       0.00000000
Si       0.02059056      -0.65880018       3.49638801       0.00000000
Si      -3.17956365       0.90497466      -1.34385075       0.00000000
Si       0.83992869       2.31360354      -2.60360722       0.00000000
Si       1.01134836       1.55242071       3.15210223       0.00000000
