10
Lattice="16.28999089631971 0.0 0.0 0.0 16.28999089631971 0.0 0.0 0.0 34.53561885213415" Properties=species:S:1:pos:R:3:initial_magmoms:R:1 pbc="T T T"
Si      -0.89018334       1.05598296      -1.89186226       0.00000000
Si      -0.88791903       0.11608254       2.18506983       0.00000000
Si       1.83772118       1.48450770       0.19156918       0.00000000
Si       0.07869699      -2.32759665      -0.45507610       0.00000000
Si       1.20050784      -0.55954521       3.29411277       0.00000000
Si      -0.99776250      -2.27299257      -2.55988511       0.00000000
Si       3.23858951       0.62602470      -1.51345527       0.00000000
Si       2.27947340       1.40605506       2.46560281       0.00000000
Si      -3.25567053       0.24936732       1.86464818       0.00000000
Si      -0.19407906      -0.09583407      -3.76165624       0.00000000
