10
Lattice="16.28999089631971 0.0 0.0 0.0 16.28999089631971 0.0 0.0 0.0 34.53561885213415" Properties=species:S:1:pos:R:3:initial_magmoms:R:1 pbc="T T T"
Si      -1.73851767      -0.00197109      -1.55693564       0.00000000
Si      -0.32580000       1.72522503       1.59046974       0.00000000
Si      -0.02880072      -1.68968025       1.70108739       0.00000000
Si       1.87962165      -0.24158070      -1.53811372       0.00000000
Si       2.07593244      -0.98041365       2.34635126       0.00000000
Si       1.76347395       1.38818493       2.65471997       0.00000000
Si      -1.97418510       0.88651809       3.11642692       0.00000000
Si      -2.78659998      -2.13570045      -1.47639853       0.00000000
Si       0.01220121      -3.83002335       0.71295371       0.00000000
Si       2.73784142      -2.46159819      -1.28054693       0.00000000
