10
Lattice="16.28999089631971 0.0 0.0 0.0 16.28999089631971 0.0 0.0 0.0 34.53561885213415" Properties=species:S:1:pos:R:3:initial_magmoms:R:1 pbc="T T T"
Si      -0.33269067      -0.99781137      -2.13295555       0.00000000
Si      -2.04898878       0.09205479       1.21306429       0.00000000
Si       1.54049643      -1.50403941       1.02926562       0.00000000
Si       1.06031610       2.15088273       0.08357624       0.00000000
Si      -1.27342188       1.61730378       2.89940497       0.00000000
Si       0.62718129      -3.58002072       0.35247072       0.00000000
Si      -0.46924974       3.32115633       1.49687816       0.00000000
Si       3.55850163      -1.01126691      -0.19471193       0.00000000
Si      -0.04753422      -3.30706548      -1.89431429       0.00000000
Si       1.31569443      -0.15910443      -3.65891272       0.00000000
