10
Lattice="16.28999089631971 0.0 0.0 0.0 16.28999089631971 0.0 0.0 0.0 34.53561885213415" Properties=species:S:1:pos:R:3:initial_magmoms:R:1 pbc="T T T"
Si      -1.35648459      -1.35708732       1.35711244       0.00000000
Si       1.35873261       1.35713619       1.35697429       0.00000000
Si       1.35663120      -1.35412254      -1.36301803       0.00000000
Si      -1.35927018       1.35558864      -1.36208557       0.00000000
Si      -2.71397916      -0.00004887       2.71474291       0.00000000
Si       0.00159642       2.71450049       2.71460477       0.00000000
Si      -2.71443528      -2.71554300       0.00024175       0.00000000
Si       0.00100998      -2.71498914       2.71505373       0.00000000
Si      -2.71542897       2.71528595      -0.00051803       0.00000000
Si       2.71551292       0.00047241       2.71526094       0.00000000
