10
Lattice="16.28999089631971 0.0 0.0 0.0 16.28999089631971 0.0 0.0 0.0 34.53561885213415" Properties=species:S:1:pos:R:3:initial_magmoms:R:1 pbc="T T T"
Si       1.35625653       1.34395758       1.34999810       0.00000000
Si       1.35257499      -1.35922131      -1.35469494       0.00000000
Si      -1.35982404       1.35640314      -1.35462587       0.00000000
Si      -1.37650500      -1.36174626       1.37538179       0.00000000
Si      -0.07820829       2.56715739       2.70952803       0.00000000
Si       2.53061892      -0.02360421       2.85637356       0.00000000
Si       2.71145671       0.00004887      -2.71173831       0.00000000
Si       2.71205694       2.71381626       0.00704527       0.00000000
Si      -0.00245979       2.71407695      -2.71239448       0.00000000
Si      -0.00304623      -2.71541268      -2.71194552       0.00000000
