10
Lattice="16.28999089631971 0.0 0.0 0.0 16.28999089631971 0.0 0.0 0.0 34.53561885213415" Properties=species:S:1:pos:R:3:initial_magmoms:R:1 pbc="T T T"
Si      -0.67812012      -1.80307494      -1.40518605       0.00000000
Si      -1.77389955       1.65038877      -0.02717955       0.00000000
Si       1.86662223       0.81971280      -1.37738486       0.00000000
Si      -0.32547420      -0.39956112       2.61952815       0.00000000
Si      -2.04050169      -0.51842925      -2.85837663       0.00000000
Si       0.69225984       2.18727459      -2.88376032       0.00000000
Si      -3.48169428       0.68173650      -1.35839026       0.00000000
Si      -0.74220498       3.41047440      -1.52423039       0.00000000
Si       2.87839643       2.61816138      -0.13057925       0.00000000
Si      -1.69893297      -3.60109998      -0.31555213       0.00000000
