10
Lattice="16.28999089631971 0.0 0.0 0.0 16.28999089631971 0.0 0.0 0.0 34.53561885213415" Properties=species:S:1:pos:R:3:initial_magmoms:R:1 pbc="T T T"
Si       0.46644786      -2.29159575       0.36490355       0.00000000
Si      -1.40086832       0.85848300       1.70502446       0.00000000
Si       2.15402670       1.03563675      -0.13575959       0.00000000
Si      -1.12005805      -0.14747337      -2.14062246       0.00000000
Si      -3.23858951      -0.62602470       1.51345527       0.00000000
Si       2.70164763      -2.20095819       1.14772286       0.00000000
Si       3.43774386       0.03171663       1.54602238       0.00000000
Si      -1.57864435       2.12625225      -2.71305066       0.00000000
Si       1.97420139       3.27329631       0.52034846       0.00000000
Si       0.17212014      -3.62033847      -1.63567689       0.00000000
