10
Lattice="16.28999089631971 0.0 0.0 0.0 16.28999089631971 0.0 0.0 0.0 34.53561885213415" Properties=species:S:1:pos:R:3:initial_magmoms:R:1 pbc="T T T"
Si       1.62302157       1.41718113      -0.86978005       0.00000000
Si      -0.57142062      -1.48853133      -1.72474430       0.00000000
Si      -1.77396471       1.51614288       0.28263966       0.00000000
Si      -0.07716573      -1.29919266       1.96272939       0.00000000
Si       0.24089652       2.05248854      -2.83813874       0.00000000
Si      -2.26883862      -2.27038617       1.47377382       0.00000000
Si       1.27384542       3.47173199       0.22779707       0.00000000
Si       3.66568333       0.29090682      -0.57308438       0.00000000
Si      -1.78660575      -3.21709581      -0.65883637       0.00000000
Si      -1.11531114       0.14274927      -3.64806853       0.00000000
