10
Lattice="16.28999089631971 0.0 0.0 0.0 16.28999089631971 0.0 0.0 0.0 34.53561885213415" Properties=species:S:1:pos:R:3:initial_magmoms:R:1 pbc="T T T"
Si       0.07716573       1.29919266      -1.96272939       0.00000000
Si       1.13586912      -2.06161353       0.27431657       0.00000000
Si       0.80314587       1.27286802       1.84938342       0.00000000
Si      -2.19167289      -0.97119351      -0.48895556       0.00000000
Si      -0.51251598      -2.90032047       1.80027375       0.00000000
Si      -1.70944002      -1.91790315      -2.62156576       0.00000000
Si      -1.69679898       2.81533554      -1.68008972       0.00000000
Si      -0.49425489      -0.18933867      -3.68747369       0.00000000
Si      -0.84012417       2.86306524       2.36158147       0.00000000
Si       2.84167647       2.45640168       1.29529364       0.00000000
