10
Lattice="16.28999089631971 0.0 0.0 0.0 16.28999089631971 0.0 0.0 0.0 34.53561885213415" Properties=species:S:1:pos:R:3:initial_magmoms:R:1 pbc="T T T"
Si      -1.88335206      -1.05109596       0.98412754       0.00000000
Si      -0.06791301       1.16980119      -2.06246831       0.00000000
Si       0.89055868      -2.09018619      -0.77560136       0.00000000
Si       0.91698432       1.67475861       1.57738074       0.00000000
Si      -0.17541072      -2.61529434       2.36396443       0.00000000
Si       2.70144305       0.17396091       2.30701516       0.00000000
Si       2.21658749       1.75940145      -2.45589830       0.00000000
Si      -3.31421679      -1.75578507      -0.87195579       0.00000000
Si      -2.95886673       0.30472074       2.62114999       0.00000000
Si      -1.01327058       1.45384992       3.57440198       0.00000000
