10
Lattice="16.28999089631971 0.0 0.0 0.0 16.28999089631971 0.0 0.0 0.0 34.53561885213415" Properties=species:S:1:pos:R:3:initial_magmoms:R:1 pbc="T T T"
Si       1.35624532       1.35632797       1.35769954       0.00000000
Si       1.35639030      -1.36064433      -1.35545473       0.00000000
Si      -1.35871517      -1.35896646       1.35676708       0.00000000
Si      -1.36423748       1.35828929      -1.35835572       0.00000000
Si       2.71610520      -0.01160319      -2.68730089       0.00000000
Si       2.71222818       2.71251446       0.00013814       0.00000000
Si       2.71146255      -2.71545105       0.00058711       0.00000000
Si      -0.00073469       2.71349186       2.71446662       0.00000000
Si       2.71393863      -0.00056044       2.71470837       0.00000000
Si      -2.71601426       2.71415975       0.00096700       0.00000000
