10
Lattice="16.28999089631971 0.0 0.0 0.0 16.28999089631971 0.0 0.0 0.0 34.53561885213415" Properties=species:S:1:pos:R:3:initial_magmoms:R:1 pbc="T T T"
Si      -1.35383698       1.35482301       1.35849386       0.00000000
Si      -1.35584464      -1.35783666      -1.35790676       0.00000000
Si       1.35888574       1.35715248      -1.35745779       0.00000000
Si       1.35966766      -1.35488817       1.36129125       0.00000000
Si      -2.71539706       2.71322982      -0.00034536       0.00000000
Si      -2.71373548      -2.71516833      -0.00089793       0.00000000
Si      -2.71388209      -0.00043983      -2.71505373       0.00000000
Si       2.71533775       2.71365336      -0.00027629       0.00000000
Si       0.00124619      -2.71492398      -2.71519187       0.00000000
Si       0.00170231       2.71497285      -2.71522641       0.00000000
