10
Lattice="16.28999089631971 0.0 0.0 0.0 16.28999089631971 0.0 0.0 0.0 34.53561885213415" Properties=species:S:1:pos:R:3:initial_magmoms:R:1 pbc="T T T"
Si      -0.72215199      -1.78944021       1.34077708       0.00000000
Si       0.09125658      -0.11660382      -2.37359987       0.00000000
Si      -1.15375554       2.08507113       0.11110115       0.00000000
Si       2.28019275       0.00324171       0.77984925       0.00000000
Si      -0.70498233      -0.79579908       3.46243947       0.00000000
Si      -2.73613845       1.64983491      -1.73216947       0.00000000
Si       2.33851095       0.00009774      -2.84691080       0.00000000
Si       0.70195239      -3.55995144       0.83783458       0.00000000
Si       2.32494138       1.78686639       2.32884169       0.00000000
Si       0.27108189      -2.35426338      -3.02970793       0.00000000
