10
Lattice="16.28999089631971 0.0 0.0 0.0 16.28999089631971 0.0 0.0 0.0 34.53561885213415" Properties=species:S:1:pos:R:3:initial_magmoms:R:1 pbc="T T T"
Si      -1.35769331       1.35688841      -1.35700883       0.00000000
Si      -1.35780734      -1.35762410       1.35683615       0.00000000
Si       1.35708732      -1.35832457      -1.35707790       0.00000000
Si       1.35785295       1.35803523       1.35697429       0.00000000
Si       0.00047241       2.71012640       2.71602073       0.00000000
Si      -0.00171045       2.71307489      -2.71457023       0.00000000
Si      -2.71393863       0.00056044      -2.71470837       0.00000000
Si      -2.71467332       2.71405229      -0.00024175       0.00000000
Si       2.71474479       2.71400342      -0.00037989       0.00000000
Si      -0.00247608      -2.71489061      -2.71412127       0.00000000
