10
Lattice="16.28999089631971 0.0 0.0 0.0 16.28999089631971 0.0 0.0 0.0 34.53561885213415" Properties=species:S:1:pos:R:3:initial_magmoms:R:1 pbc="T T T"
Si      -1.24897778       1.89563472       0.60886330       0.00000000
Si      -1.09005254       0.04215852      -2.09945598       0.00000000
Si       0.58818303      -2.11463748       0.89661424       0.00000000
Si       2.15068725       0.29659203      -1.07499081       0.00000000
Si       2.79582012      -1.45720566       0.37322664       0.00000000
Si      -1.40251103       2.41075710      -1.79108727       0.00000000
Si      -0.28936579      -0.25699104       3.29228239       0.00000000
Si      -1.00132091      -3.49510095      -0.18538731       0.00000000
Si       0.01360867      -1.51747866      -3.45232053       0.00000000
Si       2.13351759      -0.69704910      -3.19665320       0.00000000
