10
Lattice="16.28999089631971 0.0 0.0 0.0 16.28999089631971 0.0 0.0 0.0 34.53561885213415" Properties=species:S:1:pos:R:3:initial_magmoms:R:1 pbc="T T T"
Si      -1.64566371      -0.31162770      -1.76470204       0.00000000
Si       1.21327105      -1.72625130       1.28724684       0.00000000
Si       2.18495326      -0.02454903      -1.25609570       0.00000000
Si      -1.64944299       1.37450133       1.38501723       0.00000000
Si      -0.58347359       1.89960948      -1.75454856       0.00000000
Si       2.56299529      -0.28103508       2.64674711       0.00000000
Si       1.32852280      -0.36818658      -3.43536353       0.00000000
Si      -0.02738675       2.55140496       2.77240158       0.00000000
Si      -2.86653405      -0.28004139       2.72410349       0.00000000
Si      -0.71907155      -1.51325955      -3.62513687       0.00000000
