10
Lattice="16.28999089631971 0.0 0.0 0.0 16.28999089631971 0.0 0.0 0.0 34.53561885213415" Properties=species:S:1:pos:R:3:initial_magmoms:R:1 pbc="T T T"
Si      -1.34340372       1.22416200       1.45243771       0.00000000
Si      -1.42206813      -1.22016987      -1.42976993       0.00000000
Si       0.84696597       1.84200708      -1.32029196       0.00000000
Si       1.35884664      -1.47380517       1.40524821       0.00000000
Si       2.64430683       2.45325349       0.03501914       0.00000000
Si      -2.80180669       2.38132826       0.11483790       0.00000000
Si       0.11341098      -1.51150023      -3.38465973       0.00000000
Si      -1.07132814       3.35745764      -1.19352161       0.00000000
Si       0.01278765       2.59550592       2.78224627       0.00000000
Si      -3.20652686       0.28062783      -2.15940436       0.00000000
