10
Lattice="16.28999089631971 0.0 0.0 0.0 16.28999089631971 0.0 0.0 0.0 34.53561885213415" Properties=species:S:1:pos:R:3:initial_magmoms:R:1 pbc="T T T"
Si      -1.35806615      -1.35744570      -1.35649080       0.00000000
Si       1.35780734       1.35762410      -1.35683615       0.00000000
Si      -1.35746592       1.35632169       1.36229278       0.00000000
Si       1.35834491      -1.35682668       1.36218918       0.00000000
Si      -2.71326633      -0.01353699       2.70524561       0.00000000
Si       2.69264252       0.00335574       2.72948963       0.00000000
Si       0.00011403       2.71451251      -2.71384498       0.00000000
Si       2.71489466      -0.00070047      -2.71391405       0.00000000
Si       0.00015150      -2.71497285      -2.71432848       0.00000000
Si      -2.71513968       2.71433821       0.00000000       0.00000000
