10
Lattice="16.28999089631971 0.0 0.0 0.0 16.28999089631971 0.0 0.0 0.0 34.53561885213415" Properties=species:S:1:pos:R:3:initial_magmoms:R:1 pbc="T T T"
Si      -0.33591120       1.20993975      -2.06322809       0.00000000
Si       2.22300833      -1.05461460       0.21850698       0.00000000
Si      -1.33023881      -1.15790949       1.92152837       0.00000000
Si      -0.36067200       2.55738080       0.36763187       0.00000000
Si       0.34930810       2.39415337       2.57770550       0.00000000
Si      -1.34768540      -0.58850883      -3.31003370       0.00000000
Si      -1.06939354       0.67432455       3.46195598       0.00000000
Si       1.36654529      -3.33521460       0.87050530       0.00000000
Si      -3.21430763      -1.40822163      -1.93264885       0.00000000
Si      -3.53978183      -1.80778275       0.68687931       0.00000000
