10
Lattice="16.28999089631971 0.0 0.0 0.0 16.28999089631971 0.0 0.0 0.0 34.53561885213415" Properties=species:S:1:pos:R:3:initial_magmoms:R:1 pbc="T T T"
Si      -1.01177420      -1.79844858      -1.24680561       0.00000000
Si       1.87102542       0.93781843      -1.20273813       0.00000000
Si       0.33591120      -1.20993975       2.06322809       0.00000000
Si      -1.82045867       1.85623965      -0.27089755       0.00000000
Si      -0.02476080       1.34744105       2.43085996       0.00000000
Si      -2.18613659      -0.43088679      -2.75318107       0.00000000
Si       0.54055433       2.31057916      -2.71981965       0.00000000
Si      -2.26784723       2.10375643       1.99612535       0.00000000
Si      -2.87839643      -2.61816138       0.13057925       0.00000000
Si      -3.62060141       0.79231302      -1.39365114       0.00000000
