10
Lattice="16.28999089631971 0.0 0.0 0.0 16.28999089631971 0.0 0.0 0.0 34.53561885213415" Properties=species:S:1:pos:R:3:initial_magmoms:R:1 pbc="T T T"
Si       1.04148486      -0.91738764      -2.00824736       0.00000000
Si      -2.22300833       1.05461460      -0.21850698       0.00000000
Si       1.34666172       1.16304084       1.76000519       0.00000000
Si      -0.85646304      -2.28060000       0.65199831       0.00000000
Si       3.48900849       1.23196383       0.29047925       0.00000000
Si      -3.55324715      -0.10329489       1.70302139       0.00000000
Si       0.50826429       3.36492514       2.02289047       0.00000000
Si      -2.28806571      -1.92834504       2.63931707       0.00000000
Si      -1.02618855      -3.63405465      -1.44880456       0.00000000
Si      -2.55891954       2.26455435      -2.28173508       0.00000000
