10
Lattice="16.28999089631971 0.0 0.0 0.0 16.28999089631971 0.0 0.0 0.0 34.185847837958455" Properties=species:S:1:pos:R:3:initial_magmoms:R:1 pbc="T T T"
Si      -1.35620308      -1.33213430       1.35707978       0.00000000
Si      -1.43915176       1.20876687      -1.39833870       0.00000000
Si       1.35504491       1.38595320       1.35694304       0.00000000
Si       1.34317113      -1.41374557      -1.36107611       0.00000000
Si       0.26531722       2.19903597      -2.72431759       0.00000000
Si       2.02440264       0.38377611      -2.94922640       0.00000000
Si      -0.00540243      -2.69124199       2.71470311       0.00000000
Si      -2.70441235       2.72010420      -0.01580071       0.00000000
Si       2.71203612       0.02415807       2.71323312       0.00000000
Si      -2.74375270      -2.68197650      -0.02107901       0.00000000
