10
Lattice="16.28999089631971 0.0 0.0 0.0 16.28999089631971 0.0 0.0 0.0 34.185847837958455" Properties=species:S:1:pos:R:3:initial_magmoms:R:1 pbc="T T T"
Si       2.13504885       1.05169869       0.02351988       0.00000000
Si      -0.95239485       0.33394500      -2.16399956       0.00000000
Si      -1.45634229       1.62140886       1.04068616       0.00000000
Si       0.33840846      -2.18906812       0.96616097       0.00000000
Si       2.21724819       1.57398867      -2.25083167       0.00000000
Si      -1.31655780       0.90352485       3.31045680       0.00000000
Si       0.04945644       2.45998548      -2.76573919       0.00000000
Si       1.81855044       3.11041260       1.02745623       0.00000000
Si       0.26116128      -1.14391312      -3.56332965       0.00000000
Si      -0.38550285       3.70193508       0.68693081       0.00000000
