10
Lattice="16.28999089631971 0.0 0.0 0.0 16.28999089631971 0.0 0.0 0.0 34.185847837958455" Properties=species:S:1:pos:R:3:initial_magmoms:R:1 pbc="T T T"
Si      -1.35684297      -1.35671265      -1.35738403       0.00000000
Si      -1.35459495       1.35648459       1.36237517       0.00000000
Si       1.35847197       1.35884664      -1.35748659       0.00000000
Si       1.35827649      -1.35790182       1.35878565       0.00000000
Si      -2.71886616      -0.03121164       2.70334999       0.00000000
Si       2.71440270      -2.71404432      -0.00112813       0.00000000
Si       0.00096111      -2.71450044      -2.71432365       0.00000000
Si      -2.71451673       0.00175932      -2.71449458       0.00000000
Si       2.71593396       0.00104256      -2.71466551       0.00000000
Si      -2.71622718      -2.71471873       0.00006837       0.00000000
