10
Lattice="16.28999089631971 0.0 0.0 0.0 16.28999089631971 0.0 0.0 0.0 34.185847837958455" Properties=species:S:1:pos:R:3:initial_magmoms:R:1 pbc="T T T"
Si      -1.34102538      -1.35250983       1.35451242       0.00000000
Si      -1.35495333       1.35550719      -1.35413638       0.00000000
Si       1.35653346      -1.35760860      -1.35365777       0.00000000
Si       1.35760860       1.34138376       1.37379325       0.00000000
Si      -2.71272483       2.71067229       0.00564067       0.00000000
Si       0.00070047       2.71303434      -2.71169134       0.00000000
Si      -2.71393029      -0.00136836      -2.71124692       0.00000000
Si       2.71549413      -0.00144981      -2.71134948       0.00000000
Si       0.00099369      -2.71648782      -2.71121274       0.00000000
Si       2.71930599       2.71049310       0.00420486       0.00000000
