10
Lattice="16.28999089631971 0.0 0.0 0.0 16.28999089631971 0.0 0.0 0.0 34.185847837958455" Properties=species:S:1:pos:R:3:initial_magmoms:R:1 pbc="T T T"
Si       1.33895655       1.36075257      -1.35210915       0.00000000
Si       1.35311256      -1.36063854       1.35721310       0.00000000
Si      -1.36218609       1.35433431       1.35796519       0.00000000
Si      -1.37305152      -1.38171780      -1.36596127       0.00000000
Si       2.49613299      -0.07613946      -2.76027629       0.00000000
Si       2.71075374       2.71424699       0.00160674       0.00000000
Si       2.71151937      -0.00114030       2.71524667       0.00000000
Si      -0.00272043       2.71240622       2.71555434       0.00000000
Si       2.71357191      -2.71479366      -0.00088883       0.00000000
Si      -2.71665072       2.71183118      -0.00068372       0.00000000
