10
Lattice="16.28999089631971 0.0 0.0 0.0 16.28999089631971 0.0 0.0 0.0 34.185847837958455" Properties=species:S:1:pos:R:3:initial_magmoms:R:1 pbc="T T T"
Si       2.11015773       1.05398485      -0.10700176       0.00000000
Si      -1.88819019       1.36515643       0.40937576       0.00000000
Si      -0.66034773      -1.18563507      -1.97741310       0.00000000
Si       0.01642032      -1.05337656       2.16769164       0.00000000
Si      -1.19571858       2.45565953       2.41854753       0.00000000
Si       1.77174927       3.24305297      -1.07316274       0.00000000
Si       3.67982955      -0.47172582      -1.11548484       0.00000000
Si      -3.73860387      -0.07828974       1.09552029       0.00000000
Si      -1.59226605      -2.78259264       2.22837155       0.00000000
Si       0.80824464      -2.94677955      -2.45471618       0.00000000
