10
Lattice="16.28999089631971 0.0 0.0 0.0 16.28999089631971 0.0 0.0 0.0 34.185847837958455" Properties=species:S:1:pos:R:3:initial_magmoms:R:1 pbc="T T T"
Si      -0.07183890       1.97215604      -1.33106092       0.00000000
Si       0.97249671      -0.34717248       2.19008338       0.00000000
Si      -2.41008921      -0.37493064      -0.30333120       0.00000000
Si       1.14030000      -1.53688005      -1.58191681       0.00000000
Si      -0.76431051       0.88165294      -3.34023269       0.00000000
Si       2.92995198      -2.10070953      -0.04143327       0.00000000
Si      -2.35362807      -2.73873996       0.15397314       0.00000000
Si      -0.46838637      -3.26609613      -1.52123689       0.00000000
Si      -1.77500727       3.22607879      -0.22111419       0.00000000
Si      -2.61472419      -0.56179323      -2.65408815       0.00000000
