10
Lattice="16.28999089631971 0.0 0.0 0.0 16.28999089631971 0.0 0.0 0.0 34.185847837958455" Properties=species:S:1:pos:R:3:initial_magmoms:R:1 pbc="T T T"
Si      -0.04536765      -2.16658629      -0.92346282       0.00000000
Si       1.97607474       1.30409595      -0.11541149       0.00000000
Si      -0.35293914      -0.04425993       2.37511853       0.00000000
Si      -1.78965198       0.56382948      -1.54048354       0.00000000
Si      -1.95745527       1.75353705       2.23151665       0.00000000
Si      -2.92995198       2.10070953       0.04143327       0.00000000
Si       0.88962948      -3.44963556       0.77502779       0.00000000
Si       1.42431615       3.00944948      -1.68430348       0.00000000
Si      -3.39833835      -1.16538660      -1.47980362       0.00000000
Si       3.67932456       0.11518659      -1.30326781       0.00000000
