10
Lattice="16.28999089631971 0.0 0.0 0.0 16.28999089631971 0.0 0.0 0.0 34.185847837958455" Properties=species:S:1:pos:R:3:initial_magmoms:R:1 pbc="T T T"
Si      -1.35741312       1.35485559       1.35666613       0.00000000
Si       1.35749457      -1.36031755       1.35577730       0.00000000
Si      -1.37179719      -1.35349442      -1.35371589       0.00000000
Si       1.35814617       1.36182771      -1.36036504       0.00000000
Si       2.46791871      -0.10778116      -2.83668854       0.00000000
Si      -0.07195293       2.61804735      -2.72655877       0.00000000
Si      -2.71075374      -2.71424699      -0.00160674       0.00000000
Si       0.00149868       2.71370223       2.71360575       0.00000000
Si      -2.71347417      -0.00184077       2.71394760       0.00000000
Si      -2.71288773       2.71536381      -0.00225627       0.00000000
