10
Lattice="16.28999089631971 0.0 0.0 0.0 16.28999089631971 0.0 0.0 0.0 34.185847837958455" Properties=species:S:1:pos:R:3:initial_magmoms:R:1 pbc="T T T"
Si      -1.31694876       1.12365162      -1.56646347       0.00000000
Si      -1.93925934      -0.65904453       1.12751758       0.00000000
Si       0.82930761       1.89853434       1.11105708       0.00000000
Si       1.63817127      -1.87251921      -0.27389584       0.00000000
Si      -0.60719346      -2.06496927       2.48148986       0.00000000
Si       2.16003771       0.62744193       2.49804950       0.00000000
Si      -1.30289049      -0.57585150      -3.22926403       0.00000000
Si      -0.10601532       3.11798745      -1.77530493       0.00000000
Si       3.45041748      -0.86250663       0.99785401       0.00000000
Si       0.69572961      -3.50252919       1.11591490       0.00000000
