10
Lattice="16.28999089631971 0.0 0.0 0.0 16.28999089631971 0.0 0.0 0.0 34.185847837958455" Properties=species:S:1:pos:R:3:initial_magmoms:R:1 pbc="T T T"
Si       0.90818379      -2.06145063      -0.93303487       0.00000000
Si      -1.25656173       1.68305022      -1.30976312       0.00000000
Si      -0.53058159      -0.78486849      -2.40538597       0.00000000
Si      -1.01858112       1.17507915       2.15056452       0.00000000
Si      -2.22211890      -2.36853342       0.93894902       0.00000000
Si       0.72910782       2.71977840       1.87441108       0.00000000
Si       2.65124637      -1.48392126       1.73024928       0.00000000
Si       2.80189629       2.19352995       0.95522149       0.00000000
Si      -0.71426763      -3.70143009      -0.32821851       0.00000000
Si      -2.57292405       2.73968478       1.21178643       0.00000000
