10
Lattice="16.28999089631971 0.0 0.0 0.0 16.28999089631971 0.0 0.0 0.0 34.185847837958455" Properties=species:S:1:pos:R:3:initial_magmoms:R:1 pbc="T T T"
Si       1.25097752      -1.36664955       1.47621752       0.00000000
Si       1.73891189       1.02910446      -1.32268337       0.00000000
Si      -1.44415542       1.33219620       1.47297329       0.00000000
Si      -1.19660476      -1.90149912      -1.23421034       0.00000000
Si      -2.68413981       2.55032982      -0.07535591       0.00000000
Si       2.45539496      -2.77483860      -0.00281350       0.00000000
Si       2.63214146       2.66424579       0.16003772       0.00000000
Si       3.51305579      -0.82681524      -1.34199838       0.00000000
Si       2.61083414      -0.00975771       2.84701609       0.00000000
Si      -0.10661805       2.71106325       2.84243519       0.00000000
