10
Lattice="16.28999089631971 0.0 0.0 0.0 16.28999089631971 0.0 0.0 0.0 34.185847837958455" Properties=species:S:1:pos:R:3:initial_magmoms:R:1 pbc="T T T"
Si       0.78534090      -1.74847086      -1.34582921       0.00000000
Si       0.16762410      -1.15891947       2.05398944       0.00000000
Si       1.59213573       1.76474457      -0.03777538       0.00000000
Si      -2.17153845       0.68431032      -0.70730559       0.00000000
Si       2.77772193      -2.38552389      -0.18142440       0.00000000
Si       0.45989928       3.51901467      -1.19175351       0.00000000
Si      -2.81070918       2.51730999       0.65756515       0.00000000
Si      -1.36588392      -2.91345021       2.12495930       0.00000000
Si       2.31438546      -2.08435437       2.27657362       0.00000000
Si      -3.66868719      -1.19650050      -0.61575584       0.00000000
