10
Lattice="16.28999089631971 0.0 0.0 0.0 16.28999089631971 0.0 0.0 0.0 34.185847837958455" Properties=species:S:1:pos:R:3:initial_magmoms:R:1 pbc="T T T"
Si      -0.62667630       2.24041257      -0.16481006       0.00000000
Si       1.63637937      -0.25611138       1.64287021       0.00000000
Si       0.40311234      -1.09330335      -2.05395526       0.00000000
Si      -1.52909343      -1.31141016       1.29530250       0.00000000
Si      -1.54637712       2.47674789       1.97871216       0.00000000
Si      -1.21259502      -3.37012407       0.29136614       0.00000000
Si      -1.13039568      -2.84783409      -1.98298540       0.00000000
Si      -2.73672000       2.19437703      -1.15230302       0.00000000
Si       0.53598987       0.14856480       3.68824481       0.00000000
Si       2.54987370      -2.01873825      -1.83137108       0.00000000
