10
Lattice="16.28999089631971 0.0 0.0 0.0 16.28999089631971 0.0 0.0 0.0 34.185847837958455" Properties=species:S:1:pos:R:3:initial_magmoms:R:1 pbc="T T T"
Si      -0.31332186       2.26373985      -0.27321345       0.00000000
Si       1.10038950      -0.40467618      -2.04537461       0.00000000
Si      -1.99954863      -1.27412235      -0.00704229       0.00000000
Si       1.75438413       0.18246429       1.68587603       0.00000000
Si      -2.06508330      -1.45997496      -2.39294231       0.00000000
Si      -2.08236699       2.32818309      -1.70953265       0.00000000
Si      -1.36971207      -2.97877311       1.52185224       0.00000000
Si       2.59959078       1.40603877      -2.17459718       0.00000000
Si      -0.53598987      -0.14856480      -3.68824481       0.00000000
Si       1.90589742      -2.62448190      -1.98558352       0.00000000
