10
Lattice="16.28999089631971 0.0 0.0 0.0 16.28999089631971 0.0 0.0 0.0 34.185847837958455" Properties=species:S:1:pos:R:3:initial_magmoms:R:1 pbc="T T T"
Si       1.35392706       1.36282140       1.38446950       0.00000000
Si      -1.36445040      -1.35508365       1.38522158       0.00000000
Si      -1.49661117       1.23957126      -1.44131717       0.00000000
Si       1.41273396      -1.47901797      -1.34445152       0.00000000
Si      -2.46808161      -0.53910126      -2.76119730       0.00000000
Si       2.69726562       2.70808218       0.00312801       0.00000000
Si      -2.70938538      -2.70611109       0.04466725       0.00000000
Si      -2.73269637       2.69589726       0.01939706       0.00000000
Si       2.70901071       0.00239463       2.74257143       0.00000000
Si      -0.00529425      -2.71243161       2.74352864       0.00000000
