10
Lattice="16.28999089631971 0.0 0.0 0.0 16.28999089631971 0.0 0.0 0.0 34.185847837958455" Properties=species:S:1:pos:R:3:initial_magmoms:R:1 pbc="T T T"
Si      -0.53761887       0.51712605      -2.18408995       0.00000000
Si      -1.85696226      -0.84541842       1.24244294       0.00000000
Si       0.78379335       1.92073761       1.20424707       0.00000000
Si       1.69336179      -1.75296690      -0.04138302       0.00000000
Si      -2.79228519       0.37403469      -1.64391907       0.00000000
Si      -0.52623216      -2.11651083       2.62943536       0.00000000
Si       1.01726163       2.35300905      -2.28630570       0.00000000
Si       2.18883843       0.62682291       2.59424442       0.00000000
Si      -2.68626987      -2.74395276       0.13138586       0.00000000
Si       0.76414761      -3.60645939       1.12923986       0.00000000
