10
Lattice="16.28999089631971 0.0 0.0 0.0 16.28999089631971 0.0 0.0 0.0 34.185847837958455" Properties=species:S:1:pos:R:3:initial_magmoms:R:1 pbc="T T T"
Si      -1.32434442      -1.39339773      -1.34042442       0.00000000
Si       1.35571896      -1.35386190       1.35899077       0.00000000
Si      -1.35879777       1.35910728       1.35960611       0.00000000
Si       1.39072617       1.34993601      -1.37561536       0.00000000
Si      -2.65507452      -0.12230532      -2.72741684       0.00000000
Si      -0.01431891       2.64385071      -2.76561271       0.00000000
Si      -2.71326240      -2.71120986       0.00304254       0.00000000
Si       2.71523349      -2.71210581      -0.00304254       0.00000000
Si      -0.00001629      -2.71319724       2.71770805       0.00000000
Si      -2.71495656       0.00172674       2.71753712       0.00000000
