10
Lattice="16.28999089631971 0.0 0.0 0.0 16.28999089631971 0.0 0.0 0.0 34.185847837958455" Properties=species:S:1:pos:R:3:initial_magmoms:R:1 pbc="T T T"
Si       1.35262386      -1.35562122      -1.35803356       0.00000000
Si      -1.36251189       1.35953082      -1.35707636       0.00000000
Si       1.36814823       1.34887716       1.36483655       0.00000000
Si      -1.36169739      -1.36910934       1.36958839       0.00000000
Si      -0.07024248       2.52763785       2.78549862       0.00000000
Si       2.71124244       0.00273672      -2.71552015       0.00000000
Si       2.71384884      -2.71296918       0.00095720       0.00000000
Si      -0.00381186      -2.71194291      -2.71555434       0.00000000
Si      -2.71930599      -2.71049310      -0.00420486       0.00000000
Si       2.71213839       2.71842633      -0.00170929       0.00000000
