10
Lattice="16.28999089631971 0.0 0.0 0.0 16.28999089631971 0.0 0.0 0.0 34.185847837958455" Properties=species:S:1:pos:R:3:initial_magmoms:R:1 pbc="T T T"
Si       1.35576783       1.33336908       1.37957066       0.00000000
Si      -1.35871632       1.35459495      -1.35981123       0.00000000
Si       1.35527913      -1.36042677      -1.35892240       0.00000000
Si      -1.35094599      -1.36322865       1.37314372       0.00000000
Si      -0.05142753       2.50520652       2.87332212       0.00000000
Si      -2.71586880       2.71332756      -0.00047860       0.00000000
Si      -0.00110772       2.71316328      -2.71750294       0.00000000
Si       2.71471221       2.71642266       0.00071790       0.00000000
Si       2.71402803      -0.00190593      -2.71740038       0.00000000
Si      -2.71562445      -0.00175932      -2.71746875       0.00000000
