10
Lattice="16.28999089631971 0.0 0.0 0.0 16.28999089631971 0.0 0.0 0.0 34.185847837958455" Properties=species:S:1:pos:R:3:initial_magmoms:R:1 pbc="T T T"
Si      -1.92223629      -1.23846354       0.44909973       0.00000000
Si       1.89566730      -1.20029607      -0.74973025       0.00000000
Si       0.94934862       1.23659019       1.78833107       0.00000000
Si      -0.93719628       1.45044531      -1.65155342       0.00000000
Si       2.49932583       2.41653974       0.40390602       0.00000000
Si       3.27003831       0.72024606      -1.13722705       0.00000000
Si      -3.39082866       0.52268094       0.92640281       0.00000000
Si      -1.32657615      -2.95955091       1.85851466       0.00000000
Si       1.90944864      -0.53190108       3.21593288       0.00000000
Si      -3.27948651       1.29292101      -1.38845899       0.00000000
