10
Lattice="16.28999089631971 0.0 0.0 0.0 16.28999089631971 0.0 0.0 0.0 34.185847837958455" Properties=species:S:1:pos:R:3:initial_magmoms:R:1 pbc="T T T"
Si       1.35206741      -1.35687730      -1.36223843       0.00000000
Si      -1.37805255      -1.34969341       1.35440986       0.00000000
Si      -1.36321236       1.36054135      -1.36117866       0.00000000
Si       1.37459811       1.34660526       1.38510877       0.00000000
Si      -0.15441291       2.53279093       2.74662929       0.00000000
Si       2.71206413      -2.71070662      -0.00249557       0.00000000
Si      -2.71801908      -2.71130935      -0.00495695       0.00000000
Si       2.71136366       0.00291596      -2.71828921       0.00000000
Si      -0.00358010      -2.71184692      -2.71849433       0.00000000
Si       2.71219445       2.71882273      -0.00546974       0.00000000
