10
Lattice="16.28999089631971 0.0 0.0 0.0 16.28999089631971 0.0 0.0 0.0 34.185847837958455" Properties=species:S:1:pos:R:3:initial_magmoms:R:1 pbc="T T T"
Si       1.29130571      -1.86971733       0.52294121       0.00000000
Si      -1.58578263       0.23490180       1.70378942       0.00000000
Si       1.12185713       2.05343595      -0.39703466       0.00000000
Si       1.43661740       0.69111954      -2.41988078       0.00000000
Si      -0.21843261       2.54052324      -2.34272328       0.00000000
Si      -2.79080280      -1.93331349      -0.80658134       0.00000000
Si      -0.85263489      -2.67506398      -2.08229534       0.00000000
Si      -0.12729006       0.48307995       3.57218379       0.00000000
Si       2.54631338      -1.12790331       2.34477443       0.00000000
Si      -2.83643109      -1.79053164       1.55716624       0.00000000
