10
Lattice="16.28999089631971 0.0 0.0 0.0 16.28999089631971 0.0 0.0 0.0 34.185847837958455" Properties=species:S:1:pos:R:3:initial_magmoms:R:1 pbc="T T T"
Si      -0.37765107      -0.23983767      -2.27062528       0.00000000
Si       2.20077900       0.59748462       0.53169279       0.00000000
Si      -0.92782953      -1.49512715       1.54872233       0.00000000
Si      -0.32237910       2.39329422      -0.18268927       0.00000000
Si       0.14095737       2.09212470      -2.64068729       0.00000000
Si      -2.02437459       0.18599922       2.77079870       0.00000000
Si       1.67148432       2.28255480       2.17203324       0.00000000
Si      -2.76183918      -2.54461952       0.48978092       0.00000000
Si       3.26311736       1.21577157      -1.53979982       0.00000000
Si       3.44799583      -1.14595263       1.38251065       0.00000000
