10
Lattice="16.28999089631971 0.0 0.0 0.0 16.28999089631971 0.0 0.0 0.0 34.185847837958455" Properties=species:S:1:pos:R:3:initial_magmoms:R:1 pbc="T T T"
Si      -1.39880601      -1.23410434       1.50353002       0.00000000
Si       1.83806586      -1.44713355      -0.86066339       0.00000000
Si       1.48572945       1.41402087       1.58401381       0.00000000
Si      -1.09607265       0.55415322      -2.29913630       0.00000000
Si       0.93483423       1.32497973      -3.23904252       0.00000000
Si       1.66589685       3.00874671      -1.66126220       0.00000000
Si       0.18112851      -2.47672250       2.96127350       0.00000000
Si      -2.50857855       0.23550453       2.97985352       0.00000000
Si      -3.23898957      -2.19540982       0.10259179       0.00000000
Si       0.93952575      -3.33228959      -1.85892489       0.00000000
