10
Lattice="16.28999089631971 0.0 0.0 0.0 16.28999089631971 0.0 0.0 0.0 34.185847837958455" Properties=species:S:1:pos:R:3:initial_magmoms:R:1 pbc="T T T"
Si      -2.03090688      -0.77082651       0.93990623       0.00000000
Si       0.73106262       1.68376698       1.57778032       0.00000000
Si      -0.80967816       0.75307041      -2.16006819       0.00000000
Si       2.34519378      -1.26664524      -0.55794753       0.00000000
Si       2.66365025       0.95145003      -1.39447570       0.00000000
Si       2.48286057       2.54889630       0.26794883       0.00000000
Si      -0.93483423      -1.32497973       3.23904252       0.00000000
Si       1.29217167       1.09950984      -3.33937804       0.00000000
Si       0.90323163      -2.77211328       2.37837913       0.00000000
Si      -2.89536831      -2.26342220      -0.80904273       0.00000000
