10
Lattice="16.28999089631971 0.0 0.0 0.0 16.28999089631971 0.0 0.0 0.0 34.185847837958455" Properties=species:S:1:pos:R:3:initial_magmoms:R:1 pbc="T T T"
Si       1.35674569       1.35488817      -1.35642683       0.00000000
Si       1.35732332      -1.35741312       1.35707636       0.00000000
Si      -1.35780408       1.35705474       1.35724729       0.00000000
Si      -1.35806472      -1.35858600      -1.35618753       0.00000000
Si       2.71465912      -0.00092853       2.71336645       0.00000000
Si      -0.00127062       2.71357191       2.71493899       0.00000000
Si       0.00403992      -2.71453628      -2.71422109       0.00000000
Si      -2.71467963       2.71423980       0.00027349       0.00000000
Si       2.71465587      -2.71484090      -0.00027349       0.00000000
Si       2.71528792       0.00355122      -2.71435784       0.00000000
