10
Lattice="16.28999089631971 0.0 0.0 0.0 16.28999089631971 0.0 0.0 0.0 34.185847837958455" Properties=species:S:1:pos:R:3:initial_magmoms:R:1 pbc="T T T"
Si       1.69422516      -0.59497596      -1.61996568       0.00000000
Si       1.30707702      -1.01973771       1.79246756       0.00000000
Si      -2.19406100      -1.07909847       0.49921621       0.00000000
Si      -0.96679521       2.16222057      -1.38664713       0.00000000
Si      -0.10581984      -1.51817913      -2.77312334       0.00000000
Si      -1.87930074      -2.44141488      -1.52362990       0.00000000
Si      -2.80918511       0.49234896       2.12933509       0.00000000
Si       2.10615039       0.87229692       2.97765738       0.00000000
Si      -1.65339753       2.55544488       2.26833483       0.00000000
Si      -3.53435075      -0.59201118      -1.44647240       0.00000000
