10
Lattice="16.28999089631971 0.0 0.0 0.0 16.28999089631971 0.0 0.0 0.0 34.185847837958455" Properties=species:S:1:pos:R:3:initial_magmoms:R:1 pbc="T T T"
Si       1.35721179       1.34985456       1.35854635       0.00000000
Si       1.35379089      -1.35902583      -1.36076843       0.00000000
Si      -1.36254447       1.35757602      -1.36093936       0.00000000
Si      -1.37166687      -1.36485765       1.37758788       0.00000000
Si      -0.08299755       2.62752813       2.66926668       0.00000000
Si       2.71217816      -2.71365336      -0.00410230       0.00000000
Si       2.71159172       0.00045612      -2.71712689       0.00000000
Si       2.71271573       2.71650411      -0.00126488       0.00000000
Si      -2.71565703      -2.71549413      -0.00105976       0.00000000
Si      -0.00263491      -2.71494027      -2.71712689       0.00000000
