10
Lattice="16.28999089631971 0.0 0.0 0.0 16.28999089631971 0.0 0.0 0.0 34.185847837958455" Properties=species:S:1:pos:R:3:initial_magmoms:R:1 pbc="T T T"
Si      -1.21194342       1.38795687       1.47566713       0.00000000
Si       0.98634321       1.57125195      -1.49197379       0.00000000
Si      -1.69381791      -1.09421559      -1.33762460       0.00000000
Si       1.91100989      -1.28379861       1.24286138       0.00000000
Si       3.13044020       0.86112198       1.27622678       0.00000000
Si       2.36482812       2.73792546      -0.01880223       0.00000000
Si       0.38304306       3.42933822       1.19865905       0.00000000
Si      -0.30232611      -2.42113383      -2.78365259       0.00000000
Si       2.42655255       0.29357838      -2.80269412       0.00000000
Si      -2.94405912       2.66822055       0.01319574       0.00000000
