10
Lattice="16.28999089631971 0.0 0.0 0.0 16.28999089631971 0.0 0.0 0.0 34.185847837958455" Properties=species:S:1:pos:R:3:initial_magmoms:R:1 pbc="T T T"
Si      -2.07278847       0.52624845       0.91918959       0.00000000
Si       1.20076848      -1.74861747       1.01508095       0.00000000
Si       1.01880918       2.12146299       0.33816660       0.00000000
Si      -1.28202300       1.02376134       3.04141402       0.00000000
Si      -2.80189629      -2.19352995      -0.95522149       0.00000000
Si      -0.15064992      -3.67745121       0.77502779       0.00000000
Si       3.22745625       1.64871090       1.03063552       0.00000000
Si       0.07996761       2.88385128       2.43663185       0.00000000
Si       1.97855082      -0.99461853       3.14557836       0.00000000
Si       3.16713438      -2.27121696      -0.10464294       0.00000000
