10
Lattice="16.28999089631971 0.0 0.0 0.0 16.28999089631971 0.0 0.0 0.0 34.185847837958455" Properties=species:S:1:pos:R:3:initial_magmoms:R:1 pbc="T T T"
Si       0.84339846      -1.20370068      -1.85277143       0.00000000
Si      -0.70413525       1.96643106      -1.12327922       0.00000000
Si       1.72884371       0.76737303       1.69743085       0.00000000
Si      -1.55634660      -2.13522804       0.19185109       0.00000000
Si      -1.78476498      -1.03498515       2.24447826       0.00000000
Si       0.17267400      -0.16410546       3.33639160       0.00000000
Si      -1.85469795       0.99285921      -2.88815878       0.00000000
Si       3.69171215      -0.16382853       0.32268040       0.00000000
Si       2.98885077      -0.26410977      -2.19979217       0.00000000
Si       1.88770542      -3.14634834      -1.05159145       0.00000000
