10
Lattice="16.28999089631971 0.0 0.0 0.0 16.28999089631971 0.0 0.0 0.0 34.185847837958455" Properties=species:S:1:pos:R:3:initial_magmoms:R:1 pbc="T T T"
Si       0.39429945       0.78064938       2.14789802       0.00000000
Si      -0.77038668       1.97335987      -1.16539620       0.00000000
Si       1.98178506      -0.69141276      -1.21746128       0.00000000
Si      -1.59498648      -2.04138135       0.27700808       0.00000000
Si       0.60330015      -1.85808627      -2.69063284       0.00000000
Si       1.37355392       2.77870652       1.43984034       0.00000000
Si      -2.18999502       0.81880056      -2.65675465       0.00000000
Si      -3.32710218      -0.76111767      -1.18546331       0.00000000
Si      -0.38304306      -3.42933822      -1.19865905       0.00000000
Si       2.74739714      -2.56821624       0.07756773       0.00000000
