10
Lattice="16.28999089631971 0.0 0.0 0.0 16.28999089631971 0.0 0.0 0.0 34.185847837958455" Properties=species:S:1:pos:R:3:initial_magmoms:R:1 pbc="T T T"
Si       1.13301837      -0.64086489      -1.95850832       0.00000000
Si      -0.25226694       2.32925823       0.31498858       0.00000000
Si       1.15020432      -0.82766232       1.95351718       0.00000000
Si      -2.01740247      -1.37715660      -0.18747529       0.00000000
Si      -1.67664825       2.28268512       2.21640650       0.00000000
Si       1.83904882      -2.86772418      -1.30607105       0.00000000
Si       2.72745981      -2.29847013       0.94058994       0.00000000
Si      -0.29550060       0.22822290      -3.72024278       0.00000000
Si      -0.38288016      -2.24156916       2.98986174       0.00000000
Si      -1.53344286      -3.21514101       1.22498217       0.00000000
