10
Lattice="16.28999089631971 0.0 0.0 0.0 16.28999089631971 0.0 0.0 0.0 34.185847837958455" Properties=species:S:1:pos:R:3:initial_magmoms:R:1 pbc="T T T"
Si      -0.18078968       1.59744627       1.66242452       0.00000000
Si       2.17365615       0.92273076      -0.21369585       0.00000000
Si      -1.37147858       0.14805981      -1.94490234       0.00000000
Si      -0.31845647      -2.21809527       0.83652816       0.00000000
Si      -2.66365025      -0.95145003       1.39447570       0.00000000
Si       2.75227695       0.60057972       2.05518595       0.00000000
Si      -3.47332841      -0.19837962      -0.76559249       0.00000000
Si      -1.93258763       0.73231695       2.97225602       0.00000000
Si       2.35649511      -1.67775597       2.40124948       0.00000000
Si       3.26783916      -0.28968507      -1.90459720       0.00000000
