10
Lattice="16.28999089631971 0.0 0.0 0.0 16.28999089631971 0.0 0.0 0.0 34.185847837958455" Properties=species:S:1:pos:R:3:initial_magmoms:R:1 pbc="T T T"
Si       1.35733580       1.35648459       1.35629009       0.00000000
Si      -1.35732332       1.35741312      -1.35707636       0.00000000
Si       1.35733254      -1.35742778      -1.35734985       0.00000000
Si      -1.35939215      -1.35779268       1.35776008       0.00000000
Si      -0.00057763       2.71230129      -2.71350319       0.00000000
Si      -2.71356356       0.00130320       2.71258017       0.00000000
Si      -2.71538804      -0.00117288      -2.71326389       0.00000000
Si       0.00348286       2.71231758       2.71702433       0.00000000
Si       2.71601465       0.00048870       2.71346900       0.00000000
Si       2.71484177       2.71466334       0.00023930       0.00000000
