10
Lattice="16.28999089631971 0.0 0.0 0.0 16.28999089631971 0.0 0.0 0.0 34.185847837958455" Properties=species:S:1:pos:R:3:initial_magmoms:R:1 pbc="T T T"
Si      -0.39578184      -2.27833569       0.34606353       0.00000000
Si       2.29231251      -0.04134402       0.48366165       0.00000000
Si      -0.57862080       0.32215104      -2.26888180       0.00000000
Si      -2.93306663       0.99686655      -0.39276143       0.00000000
Si       1.54909755       0.60196437       2.72857916       0.00000000
Si      -2.75227695      -0.60057972      -2.05518595       0.00000000
Si       2.95829658      -1.84134015      -0.94513666       0.00000000
Si      -0.22504635       2.45788407       2.74789417       0.00000000
Si      -1.40147757      -2.28797937       2.61145838       0.00000000
Si       1.30738653      -3.53225844      -0.76388320       0.00000000
