10
Lattice="16.28999089631971 0.0 0.0 0.0 16.28999089631971 0.0 0.0 0.0 34.185847837958455" Properties=species:S:1:pos:R:3:initial_magmoms:R:1 pbc="T T T"
Si       1.35718832      -1.35742941       1.36066588       0.00000000
Si      -1.36083299       1.35979146       1.36063169       0.00000000
Si       1.35134021       1.36402686      -1.37050115       0.00000000
Si      -1.33753737      -1.37886705      -1.36946190       0.00000000
Si       2.73875951      -0.04681746      -2.68239747       0.00000000
Si      -2.71298940       2.71533123       0.00929856       0.00000000
Si      -2.71497678      -2.71386513      -0.00150418       0.00000000
Si      -0.00048381      -2.71446786       2.71921223       0.00000000
Si       2.71453628       0.00042354       2.71924641       0.00000000
Si      -2.71486275       0.00073305       2.71907548       0.00000000
