10
Lattice="16.28999089631971 0.0 0.0 0.0 16.28999089631971 0.0 0.0 0.0 34.185847837958455" Properties=species:S:1:pos:R:3:initial_magmoms:R:1 pbc="T T T"
Si      -1.35134021      -1.36402686       1.37050115       0.00000000
Si       1.36432008       1.35444834       1.37778274       0.00000000
Si       1.38741930      -1.41084432      -1.31189632       0.00000000
Si      -1.46650725       1.19783628      -1.49100291       0.00000000
Si       2.70793557       2.68682373       0.00847126       0.00000000
Si      -2.72046977       2.67478542       0.00220499       0.00000000
Si      -2.68887757      -2.74289391       0.00103925       0.00000000
Si       0.00511506       2.70682785       2.73188493       0.00000000
Si      -2.71217320      -0.00423540       2.73113284       0.00000000
Si       2.73124656      -2.71518462       0.03374145       0.00000000
