10
Lattice="16.28999089631971 0.0 0.0 0.0 16.28999089631971 0.0 0.0 0.0 34.185847837958455" Properties=species:S:1:pos:R:3:initial_magmoms:R:1 pbc="T T T"
Si       0.90340430      -1.63367523      -1.41020120       0.00000000
Si       1.21943030       2.14492059       0.03336541       0.00000000
Si       0.21680198      -1.24045092       2.24478077       0.00000000
Si      -1.91100989       1.28379861      -1.24286138       0.00000000
Si       1.89702914       0.18854046      -2.61942368       0.00000000
Si       0.72852790       2.13379452       2.40938572       0.00000000
Si      -0.87866372       0.61638102       3.24105949       0.00000000
Si       3.15921092       1.55395197      -1.13630403       0.00000000
Si      -0.84043844      -2.59092450      -2.69022261       0.00000000
Si      -0.93898559      -3.30354684       2.10578103       0.00000000
