10
Lattice="16.28999089631971 0.0 0.0 0.0 16.28999089631971 0.0 0.0 0.0 34.185847837958455" Properties=species:S:1:pos:R:3:initial_magmoms:R:1 pbc="T T T"
Si       1.22188032      -1.34148150      -1.60834248       0.00000000
Si       2.01616443       0.80524958       1.26330453       0.00000000
Si      -1.54655468      -1.61438787       1.15616602       0.00000000
Si      -1.46679233       1.36522647      -1.59993276       0.00000000
Si       2.54140290       2.68334486      -0.22395161       0.00000000
Si       2.54583378      -2.74670577      -0.19814128       0.00000000
Si       3.52525374      -1.19075013       1.25957827       0.00000000
Si      -2.99580335       2.55141215      -0.23841224       0.00000000
Si       2.58478317       0.02217069      -2.98692175       0.00000000
Si      -0.12932631      -2.69208540      -2.98753710       0.00000000
