10
Lattice="16.28999089631971 0.0 0.0 0.0 16.28999089631971 0.0 0.0 0.0 34.474598006748145" Properties=species:S:1:pos:R:3:initial_magmoms:R:1 pbc="T T T"
Si      -1.35760860      -1.35475210      -1.35750700       0.00000000
Si       1.35812988      -1.35691373       1.35712778       0.00000000
Si       1.35943308       1.35830744      -1.35623144       0.00000000
Si      -1.35822762       1.35803051       1.35781728       0.00000000
Si      -2.71347417      -0.00160294      -2.71135970       0.00000000
Si       2.71103067       0.00175118      -2.71656537       0.00000000
Si       2.71630863      -0.00024761       2.71266973       0.00000000
Si       0.00057015      -2.71323864       2.71635852       0.00000000
Si      -2.71557558      -0.00000489       2.71404872       0.00000000
Si       2.71469592      -2.71498167       0.00020685       0.00000000
