10
Lattice="16.28999089631971 0.0 0.0 0.0 16.28999089631971 0.0 0.0 0.0 34.474598006748145" Properties=species:S:1:pos:R:3:initial_magmoms:R:1 pbc="T T T"
Si      -1.42653159       1.16641287      -1.39118871       0.00000000
Si      -1.88307513      -0.83458557       1.30875990       0.00000000
Si       1.30334661      -1.56622160      -1.35381822       0.00000000
Si       0.85416615       1.89236043       1.42831787       0.00000000
Si      -0.05449005       2.50137837      -2.73714671       0.00000000
Si      -2.73554712       2.51660952       0.07973979       0.00000000
Si       2.70044217       2.59963965       0.00230980       0.00000000
Si       2.66714541      -0.21496284      -2.73566430       0.00000000
Si       2.53619010      -2.94325181       0.18457710       0.00000000
Si      -2.76675876      -0.21348045      -2.73542298       0.00000000
