10
Lattice="16.28999089631971 0.0 0.0 0.0 16.28999089631971 0.0 0.0 0.0 34.474598006748145" Properties=species:S:1:pos:R:3:initial_magmoms:R:1 pbc="T T T"
Si      -0.46066491       0.54548368      -2.25074434       0.00000000
Si       0.62553600      -2.28386844      -0.48791926       0.00000000
Si      -1.97006373      -0.35187052       1.41832023       0.00000000
Si       1.82027718       1.15093411       1.22053935       0.00000000
Si      -2.31001974       2.14353268      -2.03189947       0.00000000
Si       1.96737588      -0.04176430       3.28756845       0.00000000
Si       0.99924489      -3.39432516       1.47909898       0.00000000
Si      -3.85020340       0.78211222       0.52215255       0.00000000
Si      -1.32235704      -1.42386866      -3.47855783       0.00000000
Si       1.42241022       1.38006925      -3.55950423       0.00000000
