10
Lattice="16.28999089631971 0.0 0.0 0.0 16.28999089631971 0.0 0.0 0.0 34.474598006748145" Properties=species:S:1:pos:R:3:initial_magmoms:R:1 pbc="T T T"
Si       1.35711990      -1.35703845       1.35712778       0.00000000
Si       1.35710361       1.35698958      -1.35767938       0.00000000
Si      -1.35785295       1.35788553       1.35736911       0.00000000
Si      -1.35861858      -1.35716877      -1.35809307       0.00000000
Si      -2.71316466       0.00070047       2.71429004       0.00000000
Si       2.71480995      -0.00040725       2.71339370       0.00000000
Si      -0.00039096      -2.71459818       2.71435899       0.00000000
Si       2.71495656      -2.71428867       0.00010342       0.00000000
Si       2.71425609       2.71555929      -0.00010342       0.00000000
Si      -2.71518462      -2.71476108      -0.00013790       0.00000000
