10
Lattice="16.28999089631971 0.0 0.0 0.0 16.28999089631971 0.0 0.0 0.0 34.474598006748145" Properties=species:S:1:pos:R:3:initial_magmoms:R:1 pbc="T T T"
Si       0.15312600      -1.84741632      -1.43021397       0.00000000
Si      -1.59746256      -0.33412419       1.70508010       0.00000000
Si      -0.06636546       1.90593000      -1.39639437       0.00000000
Si       2.26022121      -0.19363923       0.68090817       0.00000000
Si       2.45083050      -2.21736222      -0.49005668       0.00000000
Si      -0.78995097       0.77084280       3.65286150       0.00000000
Si      -3.73391235       0.25314660       0.99779885       0.00000000
Si       1.81415214      -1.74871521      -3.01652901       0.00000000
Si       1.94971752       2.26175247      -2.57270279       0.00000000
Si       2.56052736      -0.84822030       2.87583810       0.00000000
