10
Lattice="16.28999089631971 0.0 0.0 0.0 16.28999089631971 0.0 0.0 0.0 34.474598006748145" Properties=species:S:1:pos:R:3:initial_magmoms:R:1 pbc="T T T"
Si       1.29969765      -1.22834745       1.57334780       0.00000000
Si       1.93712535       0.25622541      -1.44252141       0.00000000
Si      -1.74402369      -1.24869366      -1.19647607       0.00000000
Si      -1.53635877       1.62443880       1.06371432       0.00000000
Si       0.97642260       2.19981789      -2.70239630       0.00000000
Si      -0.41348907      -2.12599161       2.92502101       0.00000000
Si       2.29827465       0.62058384       2.83750030       0.00000000
Si      -1.14479604      -3.53667303      -0.64043497       0.00000000
Si      -2.41738713       2.80038132      -0.93726142       0.00000000
Si      -1.87460433      -0.23180670      -3.34569266       0.00000000
