10
Lattice="16.28999089631971 0.0 0.0 0.0 16.28999089631971 0.0 0.0 0.0 34.474598006748145" Properties=species:S:1:pos:R:3:initial_magmoms:R:1 pbc="T T T"
Si       1.34926812       1.36485765       1.37709893       0.00000000
Si      -1.36392912      -1.35236322       1.37723683       0.00000000
Si      -1.40053275       1.37499003      -1.38808944       0.00000000
Si       1.40331834      -1.32483312      -1.44806148       0.00000000
Si      -0.13075983      -2.41289109      -2.93320873       0.00000000
Si       2.70039330       2.72663649      -0.00612269       0.00000000
Si      -2.72238480      -2.70949941       0.01116978       0.00000000
Si      -2.72846097       2.71230129       0.01454139       0.00000000
Si       2.72187981      -2.72041371      -0.01606517       0.00000000
Si       2.70765864       0.00342090       2.73674336       0.00000000
