10
Lattice="16.28999089631971 0.0 0.0 0.0 16.28999089631971 0.0 0.0 0.0 34.474598006748145" Properties=species:S:1:pos:R:3:initial_magmoms:R:1 pbc="T T T"
Si       1.36689390      -1.49626908       1.18789189       0.00000000
Si      -1.28959785      -1.37033109      -1.42435329       0.00000000
Si       1.34832330       1.47461967      -1.27280287       0.00000000
Si      -1.82389356       1.20650256       1.08888079       0.00000000
Si       2.66545125       0.24174360       2.00256157       0.00000000
Si      -0.70235964      -1.00100421       3.25530021       0.00000000
Si      -2.73813723      -1.80252108       1.92923406       0.00000000
Si       1.70776215       3.43344330       0.26000756       0.00000000
Si      -2.33372169      -3.07520991      -0.18371524       0.00000000
Si      -0.04434138       2.55195882      -2.92686053       0.00000000
