10
Lattice="16.28999089631971 0.0 0.0 0.0 16.28999089631971 0.0 0.0 0.0 34.474598006748145" Properties=species:S:1:pos:R:3:initial_magmoms:R:1 pbc="T T T"
Si       1.35736425       1.35469269      -1.35605907       0.00000000
Si      -1.36081773       1.35412254       1.35826545       0.00000000
Si      -1.35746199      -1.35984033      -1.35616249       0.00000000
Si       1.35902583      -1.36133901       1.36019602       0.00000000
Si      -2.70508482       0.00620649       2.71160102       0.00000000
Si      -0.00019548       2.71243161      -2.71353160       0.00000000
Si      -2.71529865       2.71143792       0.00096529       0.00000000
Si       2.71459818      -0.00245979      -2.71373845       0.00000000
Si      -2.71421374      -2.71445157       0.00151688       0.00000000
Si      -2.71538499      -0.00242721      -2.71339370       0.00000000
