10
Lattice="16.28999089631971 0.0 0.0 0.0 16.28999089631971 0.0 0.0 0.0 34.474598006748145" Properties=species:S:1:pos:R:3:initial_magmoms:R:1 pbc="T T T"
Si      -0.05887206       1.34162811      -1.93940407       0.00000000
Si       1.82107539       0.19673433       1.51264278       0.00000000
Si       1.18451106      -1.79121582      -1.07650440       0.00000000
Si      -1.82089620       0.23894172       1.55159910       0.00000000
Si       2.75931423       1.97232871       0.19409210       0.00000000
Si      -0.85375890      -0.34953453      -3.33035145       0.00000000
Si      -2.61273681      -1.34141634      -2.03272686       0.00000000
Si      -0.89409294       1.90434402       2.95588816       0.00000000
Si      -2.06459460      -2.98453977      -0.30782386       0.00000000
Si       0.19870542      -3.68303868      -0.09428808       0.00000000
