10
Lattice="16.28999089631971 0.0 0.0 0.0 16.28999089631971 0.0 0.0 0.0 34.474598006748145" Properties=species:S:1:pos:R:3:initial_magmoms:R:1 pbc="T T T"
Si       0.45551727      -1.24023915      -1.95491765       0.00000000
Si       1.78111602       1.05347430       1.22269198       0.00000000
Si      -1.00703151      -1.79593992       1.33396226       0.00000000
Si      -2.00217132       1.63403361      -0.31440851       0.00000000
Si       0.38156067       2.28485822       2.71634270       0.00000000
Si      -2.33495973      -0.45862866       2.73659309       0.00000000
Si      -0.57780630      -3.40459371      -1.48509756       0.00000000
Si       2.78703981      -1.54680066      -2.08237031       0.00000000
Si      -0.52276239      -0.02283858      -3.78869149       0.00000000
Si      -2.52556902      -2.97610155      -0.16113436       0.00000000
