10
Lattice="16.28999089631971 0.0 0.0 0.0 16.28999089631971 0.0 0.0 0.0 34.474598006748145" Properties=species:S:1:pos:R:3:initial_magmoms:R:1 pbc="T T T"
Si       1.35584928      -1.35676315      -1.36129921       0.00000000
Si      -1.36060596       1.35852084      -1.35916179       0.00000000
Si       1.34651511       1.34688978       1.38519012       0.00000000
Si      -1.36379880      -1.35125876       1.38184608       0.00000000
Si       2.70332550      -2.70667214      -0.00217190       0.00000000
Si      -2.66714541       0.21496284       2.73566430       0.00000000
Si       2.71098180       0.00086337      -2.71618615       0.00000000
Si       2.71282257       2.71682991      -0.00089634       0.00000000
Si      -0.00232947      -2.71342927      -2.71684116       0.00000000
Si      -0.00309510       2.71608057      -2.71639299       0.00000000
