10
Lattice="16.28999089631971 0.0 0.0 0.0 16.28999089631971 0.0 0.0 0.0 34.474598006748145" Properties=species:S:1:pos:R:3:initial_magmoms:R:1 pbc="T T T"
Si       1.00414818       1.89651438       1.15389991       0.00000000
Si      -1.15743708       1.26345240      -1.75948104       0.00000000
Si      -1.37893221      -1.46768827       1.43866025       0.00000000
Si       1.54601874      -1.42920478      -1.74969025       0.00000000
Si      -2.47065543       2.73116511      -0.40669706       0.00000000
Si       0.42290469      -2.97565262       2.39877834       0.00000000
Si       2.75224437       2.67545331      -0.31813177       0.00000000
Si      -2.63490750      -2.81172635      -0.22442976       0.00000000
Si      -0.66762936       3.70273329       0.96690959       0.00000000
Si      -2.50395219      -0.08343738      -3.14467116       0.00000000
