10
Lattice="16.28999089631971 0.0 0.0 0.0 16.28999089631971 0.0 0.0 0.0 34.474598006748145" Properties=species:S:1:pos:R:3:initial_magmoms:R:1 pbc="T T T"
Si      -1.66102614      -0.09870111       1.58631504       0.00000000
Si       0.83435751       2.11033692      -0.90375209       0.00000000
Si       0.32133654      -2.25047490      -0.92612612       0.00000000
Si      -1.13634153      -0.78095889      -2.12015449       0.00000000
Si       0.63667836      -0.46864701       2.52647233       0.00000000
Si       2.77733097      -0.73181196       1.57162885       0.00000000
Si       2.29602663      -2.67861520       0.35412327       0.00000000
Si      -3.30574599      -1.56256286       0.66932469       0.00000000
Si      -3.45284469      -0.36986445      -1.39770441       0.00000000
Si      -2.70842427       1.89403830      -2.06254740       0.00000000
