10
Lattice="16.28999089631971 0.0 0.0 0.0 16.28999089631971 0.0 0.0 0.0 34.474598006748145" Properties=species:S:1:pos:R:3:initial_magmoms:R:1 pbc="T T T"
Si      -1.00980081       1.83166389       0.97721750       0.00000000
Si      -0.30030615       0.65458107      -2.19492993       0.00000000
Si      -1.06114689      -1.72784772       1.14297146       0.00000000
Si       2.27421432      -0.51996051       0.42600285       0.00000000
Si       0.96312996       2.69892720      -1.95798589       0.00000000
Si       0.08491977      -1.39502673       3.25212855       0.00000000
Si      -0.00594585      -3.58173769       0.14272492       0.00000000
Si       2.28033936      -0.36833319       2.78468721       0.00000000
Si      -0.10969686      -1.36914192      -3.36589478       0.00000000
Si       2.19758616      -2.91677826       0.69476696       0.00000000
