10
Lattice="16.28999089631971 0.0 0.0 0.0 16.28999089631971 0.0 0.0 0.0 34.474598006748145" Properties=species:S:1:pos:R:3:initial_magmoms:R:1 pbc="T T T"
Si       1.06114689       1.72784772      -1.14297146       0.00000000
Si       1.05520104      -1.85388997      -1.00024655       0.00000000
Si      -2.36851713      -0.08434962       0.32768124       0.00000000
Si       1.14606666       0.33282099       2.10915708       0.00000000
Si       3.25873305      -1.18893054      -0.44820450       0.00000000
Si       0.05134608       3.55951161      -0.16575396       0.00000000
Si       3.33536121       1.20788721      -0.71696862       0.00000000
Si       0.11696220      -3.62948435       0.31830414       0.00000000
Si      -2.59820613      -1.92187465       1.76154952       0.00000000
Si       0.55838862      -1.75168651      -3.37599585       0.00000000
