10
Lattice="16.28999089631971 0.0 0.0 0.0 16.28999089631971 0.0 0.0 0.0 34.474598006748145" Properties=species:S:1:pos:R:3:initial_magmoms:R:1 pbc="T T T"
Si      -1.34651511      -1.34688978      -1.38519012       0.00000000
Si       1.36630746       1.36994013      -1.38608646       0.00000000
Si      -1.31321835       1.46771271       1.35278398       0.00000000
Si       1.15743708      -1.26345240       1.75948104       0.00000000
Si       2.16158526       0.63306198       2.91338096       0.00000000
Si       0.48980772       2.43928089       2.72639063       0.00000000
Si       2.70345582      -2.69265718       0.00979079       0.00000000
Si      -2.71031391      -2.69814854      -0.00334404       0.00000000
Si       0.00933417      -2.70365293      -2.74648933       0.00000000
Si      -2.70712107       0.01163106      -2.74435191       0.00000000
