10
Lattice="16.28999089631971 0.0 0.0 0.0 16.28999089631971 0.0 0.0 0.0 34.474598006748145" Properties=species:S:1:pos:R:3:initial_magmoms:R:1 pbc="T T T"
Si       1.35658233       1.35651717      -1.35747253       0.00000000
Si      -1.35711990       1.35713619       1.35805860       0.00000000
Si       1.35786924      -1.35811359       1.35730016       0.00000000
Si      -1.35715248      -1.35856971      -1.35757595       0.00000000
Si      -2.71349046       0.00008145       2.71453136       0.00000000
Si      -2.71454931       2.71471221      -0.00027580       0.00000000
Si       0.00055386      -2.71596654       2.71349713       0.00000000
Si      -2.71425609      -2.71555929       0.00010342       0.00000000
Si       2.71562445       2.71477737      -0.00017237       0.00000000
Si       0.00148239       2.71625976       2.71491058       0.00000000
