10
Lattice="16.28999089631971 0.0 0.0 0.0 16.28999089631971 0.0 0.0 0.0 34.474598006748145" Properties=species:S:1:pos:R:3:initial_magmoms:R:1 pbc="T T T"
Si       0.86571576       0.59240214       2.13315142       0.00000000
Si       0.67655628      -2.27111922      -0.24556270       0.00000000
Si      -2.45260611       0.33906006      -0.93508952       0.00000000
Si       2.74090653       0.62654598      -1.15238303       0.00000000
Si       1.01825532       1.88092485      -2.22188908       0.00000000
Si      -2.07058932       2.40772716       0.17599292       0.00000000
Si       3.02713812       0.51038199       1.19819980       0.00000000
Si       2.42465247      -1.66579911      -1.67498375       0.00000000
Si      -1.60065540      -1.22168484      -2.87942346       0.00000000
Si      -0.35075628       3.43305234      -1.06530015       0.00000000
