10
Lattice="16.28999089631971 0.0 0.0 0.0 16.28999089631971 0.0 0.0 0.0 34.474598006748145" Properties=species:S:1:pos:R:3:initial_magmoms:R:1 pbc="T T T"
Si      -1.35638685      -1.35614250       1.35785175       0.00000000
Si      -1.35767376       1.35741312      -1.35719673       0.00000000
Si       1.35775521      -1.35762489      -1.35723121       0.00000000
Si       1.35775521       1.35698958       1.35960996       0.00000000
Si       2.71484253      -0.00071676      -2.71404872       0.00000000
Si      -2.71513575      -0.00120546      -2.71391082       0.00000000
Si      -2.71423980       2.71548105      -0.00027580       0.00000000
Si      -2.71498914      -2.71526607       0.00099976       0.00000000
Si       2.71542897       2.71484922       0.00031027       0.00000000
Si      -0.00128691      -2.71588509      -2.71453136       0.00000000
