10
Lattice="16.28999089631971 0.0 0.0 0.0 16.28999089631971 0.0 0.0 0.0 34.474598006748145" Properties=species:S:1:pos:R:3:initial_magmoms:R:1 pbc="T T T"
Si      -0.22936320      -2.30479065      -0.59392871       0.00000000
Si      -1.80183690       1.50796434      -0.96011809       0.00000000
Si       2.54589894       0.05462037      -0.49322835       0.00000000
Si      -1.42195410       0.99743248       2.44383667       0.00000000
Si       2.21664546       0.29713825       2.06599486       0.00000000
Si       2.06754309      -0.21372480      -2.84053609       0.00000000
Si       0.29204712      -2.06617473      -2.88218143       0.00000000
Si       2.96205957      -1.81218105       1.40515093       0.00000000
Si       1.20006801      -3.39205041       1.06812707       0.00000000
Si       0.55273599       0.56929219       3.72408606       0.00000000
