10
Lattice="16.28999089631971 0.0 0.0 0.0 16.28999089631971 0.0 0.0 0.0 34.474598006748145" Properties=species:S:1:pos:R:3:initial_magmoms:R:1 pbc="T T T"
Si      -0.52141032      -0.23861592       2.28825272       0.00000000
Si       0.86457546      -1.81473858      -1.28366237       0.00000000
Si      -1.86096960       0.89865414      -1.27514714       0.00000000
Si       1.77549597       1.85244993       0.04164534       0.00000000
Si       2.21392503      -0.47643363      -2.66668060       0.00000000
Si      -2.80736973      -0.96312996       1.89169120       0.00000000
Si      -0.51557850       2.25171783      -2.66343998       0.00000000
Si      -0.29204712       2.06617473       2.88218143       0.00000000
Si       2.37882870      -3.05246907       0.10638867       0.00000000
Si       3.55910436       0.87891066      -1.28386922       0.00000000
