10
Lattice="16.28999089631971 0.0 0.0 0.0 16.28999089631971 0.0 0.0 0.0 34.474598006748145" Properties=species:S:1:pos:R:3:initial_magmoms:R:1 pbc="T T T"
Si      -0.42378435      -0.31016160       2.27566949       0.00000000
Si       2.28595941       0.72451404       0.39656152       0.00000000
Si      -1.84200804       1.66676022      -0.32606093       0.00000000
Si      -0.35943885      -1.95882363      -1.53281043       0.00000000
Si       2.80736973       0.96312996      -1.89169120       0.00000000
Si      -0.54248958       3.19323096      -1.63271787       0.00000000
Si      -3.08742741       0.48778776      -1.89103618       0.00000000
Si      -1.75210353      -0.88148448      -3.18686810       0.00000000
Si       0.95768910      -3.19169970       1.74255400       0.00000000
Si      -2.71868697      -0.75186495       2.53295355       0.00000000
