10
Lattice="16.28999089631971 0.0 0.0 0.0 16.28999089631971 0.0 0.0 0.0 34.474598006748145" Properties=species:S:1:pos:R:3:initial_magmoms:R:1 pbc="T T T"
Si      -2.00391435       0.99633942      -0.71152163       0.00000000
Si       0.71125398      -0.71127027      -2.15476700       0.00000000
Si       2.01906405       1.14477390       0.65177711       0.00000000
Si      -1.18780164      -1.61025021       1.37419272       0.00000000
Si      -2.93071761      -0.66906288      -2.11581069       0.00000000
Si       1.74035844       3.25103507      -0.36391406       0.00000000
Si       0.59429178       2.91821408      -2.47307114       0.00000000
Si      -3.52453698       1.41125550       0.98997311       0.00000000
Si      -1.10982141      -0.90800460      -3.66740979       0.00000000
Si      -1.99177830      -3.42599877       0.01406564       0.00000000
