10
Lattice="16.28999089631971 0.0 0.0 0.0 16.28999089631971 0.0 0.0 0.0 34.474598006748145" Properties=species:S:1:pos:R:3:initial_magmoms:R:1 pbc="T T T"
Si       1.35686903       1.35764118      -1.35681751       0.00000000
Si       1.35567986      -1.35666378       1.35978233       0.00000000
Si      -1.35820494      -1.35757602      -1.35650724       0.00000000
Si      -1.35773633       1.35630540       1.36502247       0.00000000
Si       2.69590703       0.02322954       2.70401661       0.00000000
Si       2.71354910      -2.71466660      -0.00037922       0.00000000
Si       2.71418441       0.00021177      -2.71411767       0.00000000
Si      -0.00078029      -2.71469429      -2.71408319       0.00000000
Si      -2.71584992       0.00060273      -2.71415214       0.00000000
Si      -0.00120220       2.71552671      -2.71453136       0.00000000
