10
Lattice="16.28999089631971 0.0 0.0 0.0 16.28999089631971 0.0 0.0 0.0 34.474598006748145" Properties=species:S:1:pos:R:3:initial_magmoms:R:1 pbc="T T T"
Si       0.14196735      -2.30735097      -0.12455679       0.00000000
Si       2.09043054       0.49515687       0.97807937       0.00000000
Si      -1.91283696       0.44951392       1.37560618       0.00000000
Si      -0.07887618       1.03402355      -2.19744658       0.00000000
Si      -2.19154257       2.55577508       0.35991500       0.00000000
Si       2.03396940       2.80390436       0.81904796       0.00000000
Si       0.00387702       3.58246862      -0.10752633       0.00000000
Si      -2.28240819       0.36906412      -2.74948863       0.00000000
Si       3.48048882      -0.63083304      -0.64436507       0.00000000
Si       2.40614703      -2.76977520      -0.65863756       0.00000000
