10
Lattice="16.28999089631971 0.0 0.0 0.0 16.28999089631971 0.0 0.0 0.0 34.474598006748145" Properties=species:S:1:pos:R:3:initial_magmoms:R:1 pbc="T T T"
Si      -0.68235552      -0.45972009       2.22557787       0.00000000
Si      -1.53627732       1.92946905      -0.10597497       0.00000000
Si      -0.76776399      -2.00251341      -1.29762459       0.00000000
Si       2.01575718       0.66495780      -1.33658091       0.00000000
Si      -1.96840215      -0.67105026      -2.77106974       0.00000000
Si       0.75566052       2.03641290      -2.77041472       0.00000000
Si       1.06183107       0.54050220       3.39226787       0.00000000
Si      -3.25278720       0.78837084      -1.37040051       0.00000000
Si      -2.51586018      -2.78145234       0.17440709       0.00000000
Si      -0.42622785       3.51772776      -1.35650724       0.00000000
