10
Lattice="16.28999089631971 0.0 0.0 0.0 16.28999089631971 0.0 0.0 0.0 34.474598006748145" Properties=species:S:1:pos:R:3:initial_magmoms:R:1 pbc="T T T"
Si       1.35637056       1.33301070      -1.35853090       0.00000000
Si       1.35522114      -1.35519768       1.35957548       0.00000000
Si      -1.36036161       1.35878148       1.35933416       0.00000000
Si      -1.36228383      -1.35643572      -1.38807909       0.00000000
Si       2.70939094      -2.71083519      -0.00037922       0.00000000
Si       2.71238504       0.00184077       2.71639299       0.00000000
Si      -0.00232947      -2.71303434       2.71639299       0.00000000
Si      -2.71795392      -2.71176372      -0.00227532       0.00000000
Si       2.71380064       2.71800279      -0.00330956       0.00000000
Si      -0.00234576       2.71652040       2.71604825       0.00000000
