10
Lattice="16.28999089631971 0.0 0.0 0.0 16.28999089631971 0.0 0.0 0.0 34.474598006748145" Properties=species:S:1:pos:R:3:initial_magmoms:R:1 pbc="T T T"
Si       1.35562122       1.35793440       1.35636934       0.00000000
Si       1.35656604      -1.35733167      -1.35650724       0.00000000
Si      -1.35855342       1.35757602      -1.35674856       0.00000000
Si      -1.35615879      -1.35788553       1.35895494       0.00000000
Si       0.00461007       2.70928764       2.71163550       0.00000000
Si       2.71411665       0.00050499      -2.71332475       0.00000000
Si       2.71176931       0.00053757       2.71577245       0.00000000
Si      -0.00014661      -2.71344159      -2.71446241       0.00000000
Si      -0.00146610       2.71448415      -2.71356607       0.00000000
Si       2.71364827       2.71446786       0.00031027       0.00000000
