10
Lattice="16.28999089631971 0.0 0.0 0.0 16.28999089631971 0.0 0.0 0.0 34.474598006748145" Properties=species:S:1:pos:R:3:initial_magmoms:R:1 pbc="T T T"
Si       2.11960593       0.49005207      -0.89299601       0.00000000
Si       0.28623159      -0.11616399       2.35058283       0.00000000
Si      -0.31625406      -2.29234509      -0.52260072       0.00000000
Si      -1.72265121       1.25437887      -1.06950605       0.00000000
Si      -2.74090653      -0.62654598       1.15238303       0.00000000
Si      -2.06435025      -2.89766520       0.90682033       0.00000000
Si      -0.88314606      -2.20722984      -2.84974081       0.00000000
Si       3.66345877      -0.72042525       0.40659364       0.00000000
Si       1.30803813       1.96996599       2.93210067       0.00000000
Si      -1.87519077      -0.03414384       3.28553445       0.00000000
