10
Lattice="16.28999089631971 0.0 0.0 0.0 16.28999089631971 0.0 0.0 0.0 34.474598006748145" Properties=species:S:1:pos:R:3:initial_magmoms:R:1 pbc="T T T"
Si       1.69937280      -0.27007191       1.52798399       0.00000000
Si       0.08405640       1.99210410      -1.30827725       0.00000000
Si       1.45507167      -1.56118473      -1.30482979       0.00000000
Si      -2.99081142      -0.85250457      -0.64022812       0.00000000
Si       0.37049976      -1.67951529       2.83817255       0.00000000
Si      -0.20572641      -3.30348168      -1.00648645       0.00000000
Si       0.98191233      -0.82776006      -3.51275665       0.00000000
Si      -2.13078087       2.21298021      -2.22774977       0.00000000
Si      -2.14066890       1.38724011       2.81368868       0.00000000
Si       1.43405757       1.47602061      -3.21875712       0.00000000
