10
Lattice="16.28999089631971 0.0 0.0 0.0 16.28999089631971 0.0 0.0 0.0 34.474598006748145" Properties=species:S:1:pos:R:3:initial_magmoms:R:1 pbc="T T T"
Si      -1.26666153       1.43824410      -1.30173052       0.00000000
Si      -1.35637056      -1.33301070       1.35853090       0.00000000
Si       1.35743008       1.38499209       1.35522134       0.00000000
Si       1.23517852      -1.38482919      -1.51417001       0.00000000
Si       0.53667146       2.13907248      -2.71353534       0.00000000
Si       2.22395057       0.38382498      -2.88248278       0.00000000
Si      -0.00114942      -2.68820838       2.71810638       0.00000000
Si       2.71072835      -2.69648370      -0.03339211       0.00000000
Si      -2.71865439      -2.68944642      -0.02954819       0.00000000
Si       2.71475198       0.02591739       2.71738241       0.00000000
