10
Lattice="16.28999089631971 0.0 0.0 0.0 16.28999089631971 0.0 0.0 0.0 34.474598006748145" Properties=species:S:1:pos:R:3:initial_magmoms:R:1 pbc="T T T"
Si      -1.44101081       1.69209117      -0.79139931       0.00000000
Si      -0.17191163      -0.64526319       2.32793301       0.00000000
Si      -1.27405460      -2.00419128      -0.50943142       0.00000000
Si       2.35764518       0.28129572      -0.71941631       0.00000000
Si       2.87763827      -1.60780671       0.55966094       0.00000000
Si       2.12150534      -0.80759304       2.72539087       0.00000000
Si      -2.19487943      -1.56401919      -2.60507445       0.00000000
Si      -2.57225357       0.79237818      -2.64079016       0.00000000
Si      -2.96834492       2.18235501       0.98721514       0.00000000
Si      -1.14629213      -2.79181278       2.60455733       0.00000000
