10
Lattice="16.28999089631971 0.0 0.0 0.0 16.28999089631971 0.0 0.0 0.0 34.474598006748145" Properties=species:S:1:pos:R:3:initial_magmoms:R:1 pbc="T T T"
Si       1.34934957       1.33830495      -1.38301822       0.00000000
Si      -1.37637468      -1.37135736      -1.37288268       0.00000000
Si      -0.86457546       1.81473858       1.28366237       0.00000000
Si       1.51425324      -1.23773049       1.39005104       0.00000000
Si       2.69452890       2.69364924      -0.00020685       0.00000000
Si       2.69614161      -2.71904535      -0.02385644       0.00000000
Si      -0.01381392       2.70120780      -2.73456112       0.00000000
Si       2.70036072      -0.01304829      -2.73828438       0.00000000
Si      -2.72554506       2.71339272       0.00851523       0.00000000
Si      -2.74092282      -2.69951364       0.00579174       0.00000000
