10
Lattice="16.28999089631971 0.0 0.0 0.0 16.28999089631971 0.0 0.0 0.0 34.474598006748145" Properties=species:S:1:pos:R:3:initial_magmoms:R:1 pbc="T T T"
Si      -2.29341697       0.16232985      -0.39745786       0.00000000
Si       0.56342223      -1.22052825       1.99914858       0.00000000
Si       0.75613293      -0.80021367      -2.16572993       0.00000000
Si       0.81728559       2.30977539       0.32578513       0.00000000
Si       2.89258272      -1.38748446      -1.45844868       0.00000000
Si      -2.12150534       0.80759304      -2.72539087       0.00000000
Si       0.23613984       1.08888876      -3.44480718       0.00000000
Si      -0.31607487       0.19267812       3.64138145       0.00000000
Si       3.70009431      -0.28251747       0.48933272       0.00000000
Si       3.17492100       1.99700739       0.47702528       0.00000000
