10
Lattice="16.28999089631971 0.0 0.0 0.0 16.28999089631971 0.0 0.0 0.0 34.474598006748145" Properties=species:S:1:pos:R:3:initial_magmoms:R:1 pbc="T T T"
Si      -1.35416979       1.35563751       1.35995470       0.00000000
Si      -1.34096578      -1.35855342      -1.37695069       0.00000000
Si       1.36070533      -1.35897696       1.35919626       0.00000000
Si       1.35770797       1.34736219      -1.39154379       0.00000000
Si      -2.70939094       2.71083519       0.00037922       0.00000000
Si      -2.70987964      -2.71806795      -0.00303377       0.00000000
Si      -2.71172041      -0.00219915       2.71677221       0.00000000
Si       0.00299410       2.71267596       2.71677221       0.00000000
Si       2.71546318      -2.71736748      -0.00034475       0.00000000
Si       0.00269925      -2.71707426       2.71625509       0.00000000
