10
Lattice="16.28999089631971 0.0 0.0 0.0 16.28999089631971 0.0 0.0 0.0 34.474598006748145" Properties=species:S:1:pos:R:3:initial_magmoms:R:1 pbc="T T T"
Si      -1.35822951      -1.35573525       1.35630039       0.00000000
Si      -1.35718695       1.35749457      -1.35733463       0.00000000
Si       1.35723271      -1.35738054      -1.35785175       0.00000000
Si       1.35869881       1.36034532       1.35757595       0.00000000
Si      -2.71538199      -0.00014661       2.71280763       0.00000000
Si      -2.71375299       2.71482624      -0.00082739       0.00000000
Si      -2.71389960       0.00138465      -2.71528981       0.00000000
Si       0.00036366       2.71533123      -2.71415214       0.00000000
Si      -2.71505619      -2.71463076       0.00024132       0.00000000
Si       2.71523878       0.00071676      -2.71491058       0.00000000
