10
Lattice="16.28999089631971 0.0 0.0 0.0 16.28999089631971 0.0 0.0 0.0 34.474598006748145" Properties=species:S:1:pos:R:3:initial_magmoms:R:1 pbc="T T T"
Si       1.35688370      -1.35695433       1.35757595       0.00000000
Si       1.35861043       1.35591281      -1.35743806       0.00000000
Si      -1.35742465       1.35711827       1.35757595       0.00000000
Si      -1.35919685      -1.35719127      -1.35754148       0.00000000
Si       2.71432940       0.00002769       2.71370397       0.00000000
Si       2.71643081      -0.00157036      -2.71170445       0.00000000
Si       0.00078029       2.71469429       2.71408319       0.00000000
Si      -2.71575381      -0.00118265      -2.71329028       0.00000000
Si      -2.71508592      -0.00161271       2.71439347       0.00000000
Si       2.71496470       2.71490606      -0.00003447       0.00000000
