10
Lattice="16.28999089631971 0.0 0.0 0.0 16.28999089631971 0.0 0.0 0.0 34.474598006748145" Properties=species:S:1:pos:R:3:initial_magmoms:R:1 pbc="T T T"
Si      -0.04378752       1.72926495      -1.58734928       0.00000000
Si       2.35763541      -0.31276800       0.15124015       0.00000000
Si      -1.25335260       1.30171761       1.60999910       0.00000000
Si      -0.81728559      -2.30977539      -0.32578513       0.00000000
Si      -0.67761513       0.17969499       3.61845583       0.00000000
Si       0.69136389       0.81650367      -3.61511179       0.00000000
Si      -3.11070256      -2.14744554      -0.72324300       0.00000000
Si       2.88280872      -2.59229286       0.16354758       0.00000000
Si      -2.20172382       2.69044011      -1.75127608       0.00000000
Si      -0.25386336      -3.53030364       1.67336345       0.00000000
