10
Lattice="16.28999089631971 0.0 0.0 0.0 16.28999089631971 0.0 0.0 0.0 34.474598006748145" Properties=species:S:1:pos:R:3:initial_magmoms:R:1 pbc="T T T"
Si      -1.52029683       1.30569237      -1.31437926       0.00000000
Si      -1.19180409      -0.76517388       2.06254740       0.00000000
Si       1.26799731      -1.57478688      -1.54808269       0.00000000
Si       1.98276993       1.57208274       0.30709989       0.00000000
Si       2.35647882       0.46162602       2.27411813       0.00000000
Si       0.43754940       0.12061116       3.53326905       0.00000000
Si       0.03487689       2.43208252      -2.68353868       0.00000000
Si      -2.55110588      -0.30801132      -2.74314530       0.00000000
Si      -1.38565346      -3.13882236       1.67929308       0.00000000
Si       3.13963686      -1.65232728       1.58576345       0.00000000
