10
Lattice="16.28999089631971 0.0 0.0 0.0 16.28999089631971 0.0 0.0 0.0 34.474598006748145" Properties=species:S:1:pos:R:3:initial_magmoms:R:1 pbc="T T T"
Si      -0.13344768       0.61395381       2.24560762       0.00000000
Si       1.20262554      -1.83827763      -0.88799719       0.00000000
Si      -2.31955428      -0.48195594       0.22673956       0.00000000
Si       1.52726895       1.72820351      -0.72575964       0.00000000
Si       1.99446615      -0.25791957       2.69632877       0.00000000
Si      -0.55485369       2.90309696       1.70242555       0.00000000
Si      -2.14395948      -2.48973102       1.49695683       0.00000000
Si       0.53680437       2.41681439      -2.74469665       0.00000000
Si      -0.08451252      -2.59271640      -2.72907965       0.00000000
Si       2.96160345      -0.84639582      -2.18562179       0.00000000
