10
Lattice="16.28999089631971 0.0 0.0 0.0 16.28999089631971 0.0 0.0 0.0 34.54679606040008" Properties=species:S:1:pos:R:3:initial_magmoms:R:1 pbc="T T T"
Si       2.08153620      -0.01813077      -1.06984578       0.00000000
Si      -1.12585077      -1.62271206      -1.31067163       0.00000000
Si      -1.67739922       1.68177960      -0.02801747       0.00000000
Si       1.01183706      -0.59393340       2.08320859       0.00000000
Si       2.64494214      -2.31129036      -0.47888795       0.00000000
Si      -2.90625722      -2.01163581       0.27440535       0.00000000
Si       0.47646621      -3.37429431      -1.17224254       0.00000000
Si      -3.71476250       0.20325033      -0.02017534       0.00000000
Si      -0.71122140      -1.30927617       3.45537735       0.00000000
Si       3.42409284       1.69847685      -0.07427565       0.00000000
