10
Lattice="16.28999089631971 0.0 0.0 0.0 16.28999089631971 0.0 0.0 0.0 34.54679606040008" Properties=species:S:1:pos:R:3:initial_magmoms:R:1 pbc="T T T"
Si      -1.35778779      -1.35649997       1.35772439       0.00000000
Si       1.35685926       1.35835952       1.35751711       0.00000000
Si      -1.35578412       1.35706772      -1.36062632       0.00000000
Si       1.35923760      -1.35672803      -1.35813895       0.00000000
Si       0.00654858       2.71193472      -2.71105097       0.00000000
Si       2.71287144      -2.71529774       0.00086367       0.00000000
Si      -0.00048870      -2.71396196       2.71493058       0.00000000
Si       2.71292031       2.71621899       0.00148551       0.00000000
Si       2.71433754       0.00071423       2.71524150       0.00000000
Si      -0.00065160       2.71599093       2.71479239       0.00000000
