10
Lattice="16.28999089631971 0.0 0.0 0.0 16.28999089631971 0.0 0.0 0.0 34.54679606040008" Properties=species:S:1:pos:R:3:initial_magmoms:R:1 pbc="T T T"
Si       1.42053687       1.37045978      -1.32179570       0.00000000
Si      -0.21212838       0.52357526       2.33899213       0.00000000
Si      -1.52057376      -1.52801082      -1.09344125       0.00000000
Si       1.17949374      -1.21000002       3.17613056       0.00000000
Si      -0.03041343       2.57893343      -2.73793876       0.00000000
Si       2.69607645      -0.14700748      -2.73099485       0.00000000
Si      -2.73658479      -0.16199753      -2.72418913       0.00000000
Si       1.07215893       2.41448588       2.87964979       0.00000000
Si      -0.03284064      -2.85804045      -2.72488006       0.00000000
Si       2.90193318       2.73997637       0.05092201       0.00000000
