10
Lattice="16.28999089631971 0.0 0.0 0.0 16.28999089631971 0.0 0.0 0.0 34.54679606040008" Properties=species:S:1:pos:R:3:initial_magmoms:R:1 pbc="T T T"
Si       0.63578241       1.80810855      -1.34926042       0.00000000
Si      -1.28428731      -1.89091062      -0.54065766       0.00000000
Si      -1.68907752       0.60727491       1.53488046       0.00000000
Si       1.72318878      -0.72601272       1.45162263       0.00000000
Si       1.82977425       0.32549049      -2.82872779       0.00000000
Si       3.30600663      -0.61585974      -1.10681087       0.00000000
Si      -3.28590477      -0.98251506       0.91808162       0.00000000
Si       2.40459948      -2.66947162       0.24421144       0.00000000
Si       0.10733481      -3.62448590       0.29648077       0.00000000
Si       0.42609753      -1.68757884       3.20318072       0.00000000
