10
Lattice="16.28999089631971 0.0 0.0 0.0 16.28999089631971 0.0 0.0 0.0 34.54679606040008" Properties=species:S:1:pos:R:3:initial_magmoms:R:1 pbc="T T T"
Si      -1.39162212       1.73357528      -0.83713843       0.00000000
Si       0.26784018      -2.22871376      -0.84000582       0.00000000
Si      -0.36955494      -0.23174235       2.42743198       0.00000000
Si       2.29726467       0.95501428      -0.05226933       0.00000000
Si      -2.45830761      -0.78644603       1.06500922       0.00000000
Si      -2.23832745      -2.26290647      -0.86985426       0.00000000
Si       1.68326199      -1.45936964       2.61353568       0.00000000
Si       0.31876272       1.93690706       2.90669995       0.00000000
Si       1.61585397       2.89847318       1.15514187       0.00000000
Si      -1.17949374       1.21000002      -3.17613056       0.00000000
