10
Lattice="16.28999089631971 0.0 0.0 0.0 16.28999089631971 0.0 0.0 0.0 34.54679606040008" Properties=species:S:1:pos:R:3:initial_magmoms:R:1 pbc="T T T"
Si      -1.72318878       0.72601272      -1.45162263       0.00000000
Si      -1.29709125      -0.96156612       1.75155809       0.00000000
Si       0.68141070      -1.94345890      -1.20741120       0.00000000
Si       1.56020733       1.18001502       1.48319842       0.00000000
Si       1.58281785       0.11015298      -2.55843351       0.00000000
Si      -1.61585397      -2.89847318      -1.15514187       0.00000000
Si       2.42826885       2.11879143      -1.46070845       0.00000000
Si      -2.83314051       0.68095458       2.22056565       0.00000000
Si      -3.41226630       1.33328763       0.08325783       0.00000000
Si       2.09192922      -0.50287230       3.03932518       0.00000000
