10
Lattice="16.28999089631971 0.0 0.0 0.0 16.28999089631971 0.0 0.0 0.0 34.54679606040008" Properties=species:S:1:pos:R:3:initial_magmoms:R:1 pbc="T T T"
Si      -1.82540853      -0.77864571       1.20178007       0.00000000
Si      -0.86625333       1.52402724      -1.55225751       0.00000000
Si       0.69225984      -1.85287347      -1.26310066       0.00000000
Si       1.17599139       0.90095103       1.83858151       0.00000000
Si      -2.09823345      -0.08498493      -2.73842241       0.00000000
Si      -2.86511778       1.38049605       1.56987638       0.00000000
Si      -0.61195014      -2.04100668       2.84883404       0.00000000
Si       2.82683628      -1.26881181      -1.91966289       0.00000000
Si      -0.56218419      -1.72750563      -3.20742998       0.00000000
Si       1.06310169       2.31694299      -2.69143874       0.00000000
