10
Lattice="16.28999089631971 0.0 0.0 0.0 16.28999089631971 0.0 0.0 0.0 34.54679606040008" Properties=species:S:1:pos:R:3:initial_magmoms:R:1 pbc="T T T"
Si       0.96707214       1.86968475       0.97311470       0.00000000
Si      -1.48367691      -0.97124564       1.49750081       0.00000000
Si       1.46619774      -1.52238195      -1.00769606       0.00000000
Si      -1.21345839       1.26236097      -1.64705397       0.00000000
Si      -2.81409750       0.97643889       1.61236897       0.00000000
Si      -1.09889082       2.76187176       1.81850981       0.00000000
Si       0.61195014       2.04100668      -2.84883404       0.00000000
Si       1.78794153       2.94195771      -1.01025252       0.00000000
Si       0.58194396      -1.78839195      -3.14262015       0.00000000
Si       2.46843999       1.25115345       2.63979126       0.00000000
