10
Lattice="16.28999089631971 0.0 0.0 0.0 16.28999089631971 0.0 0.0 0.0 34.54679606040008" Properties=species:S:1:pos:R:3:initial_magmoms:R:1 pbc="T T T"
Si      -0.96707214      -1.86968475      -0.97311470       0.00000000
Si       1.50136785      -0.61853130       1.66667656       0.00000000
Si       0.82086939       1.07227296      -1.98336722       0.00000000
Si      -2.06596296       0.89218701       0.84539512       0.00000000
Si      -2.18053053      -0.60732378      -2.62016866       0.00000000
Si      -2.10797487       2.75920020      -0.63928882       0.00000000
Si       0.04965192       3.25060434      -1.60642691       0.00000000
Si      -2.45074905      -2.84093039       0.52438611       0.00000000
Si      -0.35512200       0.17132193      -3.82194873       0.00000000
Si       3.68860986      -0.79156368       0.79502586       0.00000000
