10
Lattice="16.28999089631971 0.0 0.0 0.0 16.28999089631971 0.0 0.0 0.0 34.54679606040008" Properties=species:S:1:pos:R:3:initial_magmoms:R:1 pbc="T T T"
Si      -1.34428338      -1.35107631       1.36458193       0.00000000
Si      -1.34514675       1.28660049      -1.44366650       0.00000000
Si       1.37363796      -1.30026780      -1.41346913       0.00000000
Si       1.36995642       1.36578618       1.36026358       0.00000000
Si       0.41197410       1.99747980      -2.95164333       0.00000000
Si       2.35418193       0.38465577      -2.96003820       0.00000000
Si      -2.69702127      -2.71138905       0.01021895       0.00000000
Si      -2.69285103       2.72839581      -0.02494280       0.00000000
Si      -2.70475902       0.00537570       2.72168448       0.00000000
Si       2.72670165      -2.70122409      -0.00437017       0.00000000
