10
Lattice="16.28999089631971 0.0 0.0 0.0 16.28999089631971 0.0 0.0 0.0 34.54679606040008" Properties=species:S:1:pos:R:3:initial_magmoms:R:1 pbc="T T T"
Si       1.28866932       1.25972199      -1.49104055       0.00000000
Si      -1.19399184       1.48261806       1.47946737       0.00000000
Si      -1.48139631      -1.36951659      -1.37271771       0.00000000
Si       1.47623238      -0.94135023       1.72191692       0.00000000
Si      -1.82977425      -0.32549049       2.82872779       0.00000000
Si       2.53469142      -0.20049732      -2.80523595       0.00000000
Si      -0.21672216       2.54137032      -2.79891389       0.00000000
Si       2.32168338       1.06728822       2.81964198       0.00000000
Si       2.55997350       2.81833290      -0.17957435       0.00000000
Si      -2.96163603       2.60618823       0.21121923       0.00000000
