10
Lattice="16.28999089631971 0.0 0.0 0.0 16.28999089631971 0.0 0.0 0.0 34.54679606040008" Properties=species:S:1:pos:R:3:initial_magmoms:R:1 pbc="T T T"
Si       0.51702831      -1.73149668       1.55882140       0.00000000
Si       1.04156631       2.03528889       0.77222496       0.00000000
Si      -2.37275253       0.25251129      -0.38412604       0.00000000
Si       0.71760708      -1.04158260      -2.11820344       0.00000000
Si       3.05256681       1.00181871       1.46609775       0.00000000
Si       1.94797449      -0.50647239       2.96076572       0.00000000
Si      -2.47568904       0.82600074      -2.71185591       0.00000000
Si      -1.41232671      -2.52441243       2.69800264       0.00000000
Si      -3.20245110       2.33566020       0.29596257       0.00000000
Si      -0.33671430       3.11283981       2.48153229       0.00000000
