10
Lattice="16.28999089631971 0.0 0.0 0.0 16.28999089631971 0.0 0.0 0.0 34.54679606040008" Properties=species:S:1:pos:R:3:initial_magmoms:R:1 pbc="T T T"
Si      -0.04201191       1.86701319      -1.48468394       0.00000000
Si       2.06596296      -0.89218701      -0.84539512       0.00000000
Si       0.41094783       0.90437193       2.24481752       0.00000000
Si      -1.71520668      -1.78543287      -0.20614085       0.00000000
Si      -1.15427682       0.65963097      -3.09746747       0.00000000
Si       1.09889082      -2.76187176      -1.81850981       0.00000000
Si      -0.38478609      -3.73311740      -0.32100901       0.00000000
Si      -0.11456757      -1.49951079      -3.46556378       0.00000000
Si      -1.70170227       1.51027848       3.18214171       0.00000000
Si       3.56733081      -1.51071831       0.82128144       0.00000000
