10
Lattice="16.28999089631971 0.0 0.0 0.0 16.28999089631971 0.0 0.0 0.0 34.54679606040008" Properties=species:S:1:pos:R:3:initial_magmoms:R:1 pbc="T T T"
Si       0.44504280       2.14304724      -0.85510277       0.00000000
Si      -1.74936681       0.61709778       1.53857697       0.00000000
Si       2.05410384      -0.73713879       1.06684021       0.00000000
Si      -0.18311589      -1.19223252      -2.12158903       0.00000000
Si       1.65169197      -2.59041951      -1.75653283       0.00000000
Si       3.36903264      -1.14934095      -0.83617112       0.00000000
Si       1.95849783       0.65813229       3.02198267       0.00000000
Si      -1.73845251      -1.16869347       3.01103133       0.00000000
Si       1.88131581       1.65499884      -2.71987077       0.00000000
Si      -3.68702973       0.46745784       0.17100674       0.00000000
