10
Lattice="16.28999089631971 0.0 0.0 0.0 16.28999089631971 0.0 0.0 0.0 34.54679606040008" Properties=species:S:1:pos:R:3:initial_magmoms:R:1 pbc="T T T"
Si       1.31492880      -0.41220216      -1.90301132       0.00000000
Si      -0.09560601       1.39527108       1.95514247       0.00000000
Si      -2.05410384       0.73713879      -1.06684021       0.00000000
Si       0.12637782      -2.33264655       0.68133229       0.00000000
Si       2.30495355       1.14161949       0.41988199       0.00000000
Si      -1.62927693      -0.12481398       2.91696036       0.00000000
Si      -0.40241187      -1.85328072      -2.82337303       0.00000000
Si      -0.36575937      -2.06594667       2.95323451       0.00000000
Si      -1.13568993      -3.30357942      -1.02034019       0.00000000
Si       2.14904196       0.96288561       2.88697372       0.00000000
