10
Lattice="16.28999089631971 0.0 0.0 0.0 16.28999089631971 0.0 0.0 0.0 34.54679606040008" Properties=species:S:1:pos:R:3:initial_magmoms:R:1 pbc="T T T"
Si      -0.26784018       2.22871376       0.84000582       0.00000000
Si      -2.50616763      -0.03419271      -0.02984845       0.00000000
Si       1.49959224      -0.09153351      -2.11423055       0.00000000
Si       0.83368962      -1.16253585       2.23580080       0.00000000
Si      -1.49802840      -2.18632977      -2.12044898       0.00000000
Si      -2.72614779       1.44226773       1.90501504       0.00000000
Si       1.41542181       0.76934412       3.45354149       0.00000000
Si      -0.17920629      -0.91924470      -3.70804788       0.00000000
Si       2.02942449       3.18372804       0.78773648       0.00000000
Si      -0.63739512       1.99697141       3.26743780       0.00000000
