10
Lattice="16.28999089631971 0.0 0.0 0.0 16.28999089631971 0.0 0.0 0.0 34.54679606040008" Properties=species:S:1:pos:R:3:initial_magmoms:R:1 pbc="T T T"
Si      -1.15831674      -1.61371998      -1.21787888       0.00000000
Si       0.17441703       2.20657824      -0.72838506       0.00000000
Si      -1.43627301       0.48804840       1.86476800       0.00000000
Si       2.15920692      -0.98691336       0.50182704       0.00000000
Si      -2.06443170      -2.84723136       0.59828175       0.00000000
Si       3.18179538       0.93690306       1.44457508       0.00000000
Si       2.28998304       2.81326671       0.28822408       0.00000000
Si       1.48771683      -2.80433979       1.88369965       0.00000000
Si      -1.88131581      -1.65499884       2.71987077       0.00000000
Si      -0.04989627       1.77507243       3.24705518       0.00000000
