10
Lattice="16.28999089631971 0.0 0.0 0.0 16.28999089631971 0.0 0.0 0.0 34.54679606040008" Properties=species:S:1:pos:R:3:initial_magmoms:R:1 pbc="T T T"
Si       1.38637674       1.28702403       1.38228718       0.00000000
Si      -0.44504280      -2.14304724       0.85510277       0.00000000
Si       1.43627301      -0.48804840      -1.86476800       0.00000000
Si      -2.19952467       1.24475148      -0.03772512       0.00000000
Si       1.61069004       1.71852984      -2.59315306       0.00000000
Si       0.03859101       3.19754441      -1.60770515       0.00000000
Si      -2.19440961      -1.52594946       2.39367974       0.00000000
Si      -0.62815869      -3.33527976      -1.26648625       0.00000000
Si       0.92284479       3.46355441       0.52721895       0.00000000
Si       0.77449176       0.76246974       3.54750883       0.00000000
