10
Lattice="16.28999089631971 0.0 0.0 0.0 16.28999089631971 0.0 0.0 0.0 34.54679606040008" Properties=species:S:1:pos:R:3:initial_magmoms:R:1 pbc="T T T"
Si       0.58399650       0.34189452      -2.21196349       0.00000000
Si      -2.37174255       0.08008164      -0.03337222       0.00000000
Si       0.60180147      -1.79435979       1.46367947       0.00000000
Si      -0.61491492       2.37298615      -1.64625939       0.00000000
Si       1.67350428      -0.33000282       3.17955903       0.00000000
Si      -0.95663025      -1.11211830      -3.37176918       0.00000000
Si      -2.93127147       1.68899837      -1.68173897       0.00000000
Si      -2.87968104       1.26033810       2.10396639       0.00000000
Si       1.76492376      -3.65102883       0.35096110       0.00000000
Si      -0.41125734       4.08995378       0.20880095       0.00000000
