10
Lattice="16.28999089631971 0.0 0.0 0.0 16.28999089631971 0.0 0.0 0.0 34.54679606040008" Properties=species:S:1:pos:R:3:initial_magmoms:R:1 pbc="T T T"
Si      -2.08153620       0.01813077       1.06984578       0.00000000
Si       1.34255664       1.71660762       0.99557013       0.00000000
Si       0.56340594      -2.29315959       0.59095782       0.00000000
Si       0.37853073       0.27227106      -2.39364520       0.00000000
Si      -1.06969914      -0.57580263       3.15305437       0.00000000
Si       0.78302772       3.32552435      -0.65279662       0.00000000
Si      -3.20738697      -1.60458129      -0.24082585       0.00000000
Si       2.75766894       0.52440768      -2.34282683       0.00000000
Si      -1.60506999      -3.35616354      -0.10239676       0.00000000
Si       0.78327207      -2.23852293       2.99969998       0.00000000
