10
Lattice="16.28999089631971 0.0 0.0 0.0 16.28999089631971 0.0 0.0 0.0 34.54679606040008" Properties=species:S:1:pos:R:3:initial_magmoms:R:1 pbc="T T T"
Si      -0.45932913      -0.25625962       2.31114740       0.00000000
Si       1.89392427      -1.47150406      -0.08412150       0.00000000
Si      -2.00332791      -0.67889782      -1.15037440       0.00000000
Si       0.78631830       2.09234787      -1.09786325       0.00000000
Si       0.74593539       1.91595975       2.14373353       0.00000000
Si      -0.52991370      -1.82032183      -2.59560588       0.00000000
Si       0.67461777      -3.20868595      -1.17006609       0.00000000
Si       2.20139802       0.90284067      -2.58510365       0.00000000
Si      -1.54825047       2.84755227       1.94550391       0.00000000
Si       3.62296116      -0.30507554      -1.13973399       0.00000000
