10
Lattice="16.28999089631971 0.0 0.0 0.0 16.28999089631971 0.0 0.0 0.0 34.54679606040008" Properties=species:S:1:pos:R:3:initial_magmoms:R:1 pbc="T T T"
Si      -1.35812988      -1.35643572      -1.35796622       0.00000000
Si       1.35773892       1.35824391      -1.35803531       0.00000000
Si       1.36013355      -1.35874890       1.35831169       0.00000000
Si      -1.36231641       1.35847197       1.36031540       0.00000000
Si       2.71316466       2.71518462      -0.00062184       0.00000000
Si      -0.00003258      -2.71396287      -2.71569061       0.00000000
Si       2.71480995       0.00105885      -2.71527605       0.00000000
Si      -2.71477737       0.00066789      -2.71548333       0.00000000
Si       2.71704168      -2.71404432      -0.00055275       0.00000000
Si      -2.71474479       2.71640637      -0.00127823       0.00000000
