10
Lattice="16.28999089631971 0.0 0.0 0.0 16.28999089631971 0.0 0.0 0.0 34.54679606040008" Properties=species:S:1:pos:R:3:initial_magmoms:R:1 pbc="T T T"
Si      -1.24602210       1.46021931       1.31419540       0.00000000
Si      -1.37906253      -1.33661079      -1.36021176       0.00000000
Si       1.33646418       1.37982816      -1.36211184       0.00000000
Si       1.27610973      -1.49605731       1.48378572       0.00000000
Si      -2.53469142       0.20049732       2.80523595       0.00000000
Si       2.69118945      -2.68556451      -0.00345468       0.00000000
Si      -0.02200779      -2.69000517      -2.72114901       0.00000000
Si       2.69337231       0.02453274      -2.72097627       0.00000000
Si      -2.74054815      -2.68648653       0.02331910       0.00000000
Si       2.69211798       2.73810465       0.00846397       0.00000000
