10
Lattice="16.28999089631971 0.0 0.0 0.0 16.28999089631971 0.0 0.0 0.0 34.54679606040008" Properties=species:S:1:pos:R:3:initial_magmoms:R:1 pbc="T T T"
Si       1.35690813      -1.35529542      -1.35886444       0.00000000
Si      -1.36013355       1.35874890      -1.35831169       0.00000000
Si      -1.33646418      -1.37982816       1.36211184       0.00000000
Si       1.35565380       1.35827649       1.37057581       0.00000000
Si      -2.58248628       0.08039115       2.67630724       0.00000000
Si       2.59100595      -0.18740016       2.71662337       0.00000000
Si       2.71226871      -2.71213839      -0.00587296       0.00000000
Si       2.71256193       0.00166158      -2.71610517       0.00000000
Si      -0.00190593      -2.71314837      -2.71613972       0.00000000
Si       2.71246419       2.71849149       0.00006909       0.00000000
