10
Lattice="16.28999089631971 0.0 0.0 0.0 16.28999089631971 0.0 0.0 0.0 34.54679606040008" Properties=species:S:1:pos:R:3:initial_magmoms:R:1 pbc="T T T"
Si       1.69090200      -0.83307060       1.38373814       0.00000000
Si      -1.43094618      -1.22502429      -1.40194431       0.00000000
Si      -1.35599589       0.98761383       1.70198341       0.00000000
Si       1.10459232       1.50829110      -1.49466797       0.00000000
Si      -0.90640818       2.54176128      -2.18854075       0.00000000
Si      -1.94797449       0.50647239      -2.96076572       0.00000000
Si       0.36134478       2.42869239       2.62234511       0.00000000
Si       2.00955069       0.80708805       3.08430513       0.00000000
Si      -0.19893348      -3.12789177      -2.18629521       0.00000000
Si       3.75741882      -0.73101375       0.25022258       0.00000000
