10
Lattice="16.28999089631971 0.0 0.0 0.0 16.28999089631971 0.0 0.0 0.0 34.54679606040008" Properties=species:S:1:pos:R:3:initial_magmoms:R:1 pbc="T T T"
Si      -1.69090200       0.83307060      -1.38373814       0.00000000
Si      -0.72879831      -1.89576504       1.16830420       0.00000000
Si       2.06651682       0.10205685      -1.13351556       0.00000000
Si       0.31864869       1.64015865       1.70056699       0.00000000
Si      -3.04689789       1.82068443       0.31824526       0.00000000
Si       2.48569110       2.50232319      -0.79181301       0.00000000
Si       0.41633982      -1.77256377       3.14852766       0.00000000
Si      -0.32162976       0.46628496       3.62485915       0.00000000
Si      -1.32955722       3.26176299       1.23860697       0.00000000
Si      -0.58630968       2.34136170      -2.87840611       0.00000000
