10
Lattice="16.28999089631971 0.0 0.0 0.0 16.28999089631971 0.0 0.0 0.0 34.54679606040008" Properties=species:S:1:pos:R:3:initial_magmoms:R:1 pbc="T T T"
Si       1.35542574       1.35694071       1.35741347       0.00000000
Si       1.35707103      -1.35718506      -1.35724074       0.00000000
Si      -1.35778779       1.35782037      -1.35734438       0.00000000
Si      -1.35773892      -1.35824391       1.35803531       0.00000000
Si      -0.00127062       2.71399545       2.71323779       0.00000000
Si      -0.00057015       2.71489140      -2.71347961       0.00000000
Si       2.71461447       2.71487511       0.00010364       0.00000000
Si      -2.71555929       0.00024435      -2.71451602       0.00000000
Si       2.71495656      -2.71533123       0.00024183       0.00000000
Si       2.71542897       0.00167787      -2.71499967       0.00000000
