10
Lattice="16.28999089631971 0.0 0.0 0.0 16.28999089631971 0.0 0.0 0.0 34.54679606040008" Properties=species:S:1:pos:R:3:initial_magmoms:R:1 pbc="T T T"
Si      -1.35726651      -1.35720135       1.35658435       0.00000000
Si      -1.35715248       1.35703845      -1.35748256       0.00000000
Si       1.35716877       1.35707103       1.35772439       0.00000000
Si       1.35742941      -1.35754344      -1.35751711       0.00000000
Si      -2.70984150      -0.00143352       2.71648519       0.00000000
Si       2.71394658      -0.00136836       2.71306505       0.00000000
Si      -0.00141723       2.71329498      -2.71420510       0.00000000
Si       2.71464705      -0.00047241      -2.71365235       0.00000000
Si      -0.00047241       2.71682991       2.71185591       0.00000000
Si       2.71474479       2.71461447      -0.00038001       0.00000000
