10
Lattice="16.28999089631971 0.0 0.0 0.0 16.28999089631971 0.0 0.0 0.0 34.54679606040008" Properties=species:S:1:pos:R:3:initial_magmoms:R:1 pbc="T T T"
Si      -1.46958606      -1.23528699       1.25639858       0.00000000
Si       1.61644041       1.05684633       1.35637706       0.00000000
Si       1.19724984      -1.51601256      -1.36079906       0.00000000
Si      -1.49744196       1.21073796      -1.37081763       0.00000000
Si       0.02407662      -1.96675686       2.95002166       0.00000000
Si       2.55406023      -0.15579756      -2.73130577       0.00000000
Si      -0.16206921       2.55669921      -2.73448408       0.00000000
Si       2.62985760       2.67879276      -0.00666754       0.00000000
Si      -2.73238686       2.63371833       0.04532542       0.00000000
Si      -2.43787995       0.25361901       2.91468027       0.00000000
