10
Lattice="16.28999089631971 0.0 0.0 0.0 16.28999089631971 0.0 0.0 0.0 34.54679606040008" Properties=species:S:1:pos:R:3:initial_magmoms:R:1 pbc="T T T"
Si       1.35802588      -1.35472527      -1.35637706       0.00000000
Si      -1.35261613       1.35581670      -1.36121362       0.00000000
Si      -1.35644428      -1.35694071       1.35686072       0.00000000
Si       1.35833865       1.35780408       1.35672253       0.00000000
Si       0.01962873       2.69387730      -2.72873894       0.00000000
Si       2.70457846      -0.01747917      -2.72128028       0.00000000
Si      -2.71348273      -2.71360449      -0.00010364       0.00000000
Si       2.71322845      -2.71485882      -0.00103640       0.00000000
Si      -2.71416691       0.00039096       2.71420510       0.00000000
Si       2.71304926       2.71577106      -0.00148551       0.00000000
