10
Lattice="16.28999089631971 0.0 0.0 0.0 16.28999089631971 0.0 0.0 0.0 34.54679606040008" Properties=species:S:1:pos:R:3:initial_magmoms:R:1 pbc="T T T"
Si       1.20762657      -2.03623371       0.27720365       0.00000000
Si      -0.62297847       0.33832701       2.27998617       0.00000000
Si       1.75791906       1.53963306      -0.61258413       0.00000000
Si      -1.98317718       0.28015542      -1.57872037       0.00000000
Si       1.83687669       2.21086251       1.62712046       0.00000000
Si      -0.63625482       2.68407072       1.82735380       0.00000000
Si      -3.20280948      -1.36555812       0.05834957       0.00000000
Si      -0.39216546       1.26457641      -3.22981632       0.00000000
Si      -2.88785862      -0.56057148       2.27915705       0.00000000
Si       0.82714104       3.00175830      -2.14387172       0.00000000
