10
Lattice="16.28999089631971 0.0 0.0 0.0 16.28999089631971 0.0 0.0 0.0 34.54679606040008" Properties=species:S:1:pos:R:3:initial_magmoms:R:1 pbc="T T T"
Si       0.87759117       1.80029654       1.38340101       0.00000000
Si      -1.87835103      -1.05016743       1.14219514       0.00000000
Si       1.81591146      -1.73112201      -0.04629273       0.00000000
Si       0.32759190       2.16804329      -1.61713643       0.00000000
Si       2.22519771       0.46820592       2.73050916       0.00000000
Si      -0.51636042      -2.25080559       2.71110076       0.00000000
Si       2.84040585       1.57022798      -1.52147630       0.00000000
Si       1.97659602       3.19366169      -0.06802268       0.00000000
Si       3.54602349      -0.91584009       1.36784803       0.00000000
Si       0.88135416      -3.57389568       1.33387469       0.00000000
