10
Lattice="16.28999089631971 0.0 0.0 0.0 16.28999089631971 0.0 0.0 0.0 34.54679606040008" Properties=species:S:1:pos:R:3:initial_magmoms:R:1 pbc="T T T"
Si       1.35148586       1.35597960       1.39068896       0.00000000
Si      -1.36381509      -1.36318630       1.38795976       0.00000000
Si       1.38841203      -1.32584636      -1.48024122       0.00000000
Si      -1.34954505       1.29323052      -1.55021925       0.00000000
Si       2.69803844       2.69322570       0.02578574       0.00000000
Si      -2.71083519       2.70223407      -0.00480892       0.00000000
Si       2.68982828      -2.72910550       0.01218121       0.00000000
Si      -2.70633915      -2.71944476       0.03833660       0.00000000
Si      -0.22659390      -2.63638012      -2.79394748       0.00000000
Si       2.70668843      -0.00415395       2.74602962       0.00000000
