10
Lattice="16.28999089631971 0.0 0.0 0.0 16.28999089631971 0.0 0.0 0.0 34.54679606040008" Properties=species:S:1:pos:R:3:initial_magmoms:R:1 pbc="T T T"
Si       1.35754344       1.35325428      -1.36453011       0.00000000
Si      -1.35610992      -1.36207663      -1.35848442       0.00000000
Si       1.42156314      -1.20791621       1.44536966       0.00000000
Si      -1.41507972       1.18950720       1.48724040       0.00000000
Si      -0.30747375      -2.37434473       2.50098215       0.00000000
Si      -2.20139802      -0.90284067       2.58510365       0.00000000
Si       2.10064437       0.65040594       2.79777384       0.00000000
Si       0.21659184       2.06763594       2.98930139       0.00000000
Si      -2.69118945       2.68556451       0.00345468       0.00000000
Si       2.70899442       2.70501477      -0.01979533       0.00000000
