10
Lattice="16.28999089631971 0.0 0.0 0.0 16.28999089631971 0.0 0.0 0.0 34.54679606040008" Properties=species:S:1:pos:R:3:initial_magmoms:R:1 pbc="T T T"
Si       1.34602478       1.35583299      -1.37624148       0.00000000
Si      -1.36929735      -1.35658233      -1.37371957       0.00000000
Si      -1.43654247       1.28013336       1.38715828       0.00000000
Si       1.28228201      -1.36088289       1.52762563       0.00000000
Si      -2.41451262      -0.60013989       2.59570952       0.00000000
Si      -0.74211376      -2.32870437       2.71330688       0.00000000
Si       2.69110637      -2.70083313       0.00424926       0.00000000
Si       2.68983575       2.72269431      -0.01723886       0.00000000
Si       2.70558818      -0.00040725      -2.73320584       0.00000000
Si      -2.72921913       2.71119357      -0.00525112       0.00000000
