10
Lattice="16.28999089631971 0.0 0.0 0.0 16.28999089631971 0.0 0.0 0.0 34.54679606040008" Properties=species:S:1:pos:R:3:initial_magmoms:R:1 pbc="T T T"
Si      -0.04044807      -0.19098396      -2.35989296       0.00000000
Si      -2.15959788       0.58143897       0.80476806       0.00000000
Si       0.28080702      -2.20434814       0.85441184       0.00000000
Si       1.60065540       1.70272854       0.61441511       0.00000000
Si       0.04561200       3.03653745       1.82697378       0.00000000
Si       0.32211846      -1.88192343       3.20366438       0.00000000
Si      -0.84144366       1.91567142      -3.08969443       0.00000000
Si      -3.68893566       0.01715337      -0.92844566       0.00000000
Si       2.69037399      -2.66540890       0.76559198       0.00000000
Si       1.84036275      -1.25877717      -3.24484418       0.00000000
