10
Lattice="16.28999089631971 0.0 0.0 0.0 16.28999089631971 0.0 0.0 0.0 34.54679606040008" Properties=species:S:1:pos:R:3:initial_magmoms:R:1 pbc="T T T"
Si       0.04131144       0.32242471       2.34925254       0.00000000
Si      -0.28080702       2.20434814      -0.85441184       0.00000000
Si      -1.30484529      -1.70175670      -1.17839187       0.00000000
Si       2.40956697      -0.46106076      -0.08881986       0.00000000
Si      -2.47150251       0.92024002       2.25359241       0.00000000
Si       2.46580657      -1.90458349       1.84625091       0.00000000
Si      -2.44040490       2.78578711      -0.04964377       0.00000000
Si      -0.24679350      -3.68064961      -0.41197077       0.00000000
Si      -0.32125509       2.01336418      -3.21430480       0.00000000
Si       0.42844329      -3.38311276       1.85409303       0.00000000
