10
Lattice="16.28999089631971 0.0 0.0 0.0 16.28999089631971 0.0 0.0 0.0 34.54679606040008" Properties=species:S:1:pos:R:3:initial_magmoms:R:1 pbc="T T T"
Si       1.29635820      -1.38963474       1.50984784       0.00000000
Si      -1.41690420       1.33825608       1.51649119       0.00000000
Si      -1.80022419      -1.00349658      -1.42051810       0.00000000
Si       1.59322716       1.27503459      -1.58060805       0.00000000
Si       2.54956419       2.58240483       0.25198102       0.00000000
Si      -2.69360037       2.67059889      -0.00739302       0.00000000
Si       2.65764834      -2.79863829      -0.03556249       0.00000000
Si      -2.78076816      -2.68842015       0.12605097       0.00000000
Si       2.64803724      -0.02534724       2.90050916       0.00000000
Si      -0.07700283       2.69120574       2.90396384       0.00000000
