10
Lattice="16.28999089631971 0.0 0.0 0.0 16.28999089631971 0.0 0.0 0.0 34.54679606040008" Properties=species:S:1:pos:R:3:initial_magmoms:R:1 pbc="T T T"
Si      -1.36236528      -1.36425492       1.33834363       0.00000000
Si      -1.35589815       1.35614250      -1.35945173       0.00000000
Si       1.35726066      -1.35980775      -1.35914081       0.00000000
Si       1.36929735       1.35658233       1.37371957       0.00000000
Si      -0.06724512       2.63671569       2.76087784       0.00000000
Si       2.71532213       2.71241532      -0.00252192       0.00000000
Si      -2.71362078       2.71461447      -0.00044911       0.00000000
Si      -2.71381626      -2.71601541      -0.00639116       0.00000000
Si       0.00162868       2.71298547      -2.71696884       0.00000000
Si      -2.71352304      -0.00221544      -2.71662337       0.00000000
