10
Lattice="16.28999089631971 0.0 0.0 0.0 16.28999089631971 0.0 0.0 0.0 34.54679606040008" Properties=species:S:1:pos:R:3:initial_magmoms:R:1 pbc="T T T"
Si       1.23048144      -1.36203948       1.40681542       0.00000000
Si      -1.47271374       1.17297774       1.37776154       0.00000000
Si      -1.35145098      -1.35176049      -1.34473479       0.00000000
Si       1.36236528       1.36425492      -1.33834363       0.00000000
Si       0.31715001       2.12069736       2.63108546       0.00000000
Si       1.98954887       0.39213288       2.74868282       0.00000000
Si      -0.60835005      -2.05460883       2.81756917       0.00000000
Si      -2.70681156       0.00508248      -2.69772627       0.00000000
Si       0.00395847      -2.71011680      -2.69890086       0.00000000
Si      -2.70899442      -2.70501477       0.01979533       0.00000000
