10
Lattice="16.28999089631971 0.0 0.0 0.0 16.28999089631971 0.0 0.0 0.0 34.54679606040008" Properties=species:S:1:pos:R:3:initial_magmoms:R:1 pbc="T T T"
Si      -1.28228201       1.36088289      -1.52762563       0.00000000
Si       1.40882436      -1.33995024      -1.52337637       0.00000000
Si       1.37953494       1.42728093       1.47670362       0.00000000
Si      -2.02439577      -0.96782148       1.18568125       0.00000000
Si       2.63282238       2.68508070      -0.13172701       0.00000000
Si      -0.42412644       2.52936459       2.76391796       0.00000000
Si      -2.71882448       2.64101625      -0.14046735       0.00000000
Si       2.85977466      -2.54842389      -0.10723331       0.00000000
Si      -2.78346320      -2.72199384      -0.15618615       0.00000000
Si      -3.69679463       0.76074300       1.06808389       0.00000000
