10
Lattice="16.28999089631971 0.0 0.0 0.0 16.28999089631971 0.0 0.0 0.0 34.54679606040008" Properties=species:S:1:pos:R:3:initial_magmoms:R:1 pbc="T T T"
Si       1.99418922       0.88060482       0.77878886       0.00000000
Si      -1.68187408      -0.42683058       1.67904432       0.00000000
Si       1.80366138      -1.10208366      -1.28721434       0.00000000
Si      -1.39176547       2.00011878      -1.68667917       0.00000000
Si       0.28183329      -1.32743952       3.07546114       0.00000000
Si      -2.29469804       0.11165166      -2.90438531       0.00000000
Si       2.09712573       0.30711537       3.10651873       0.00000000
Si       0.42412644      -2.52936459      -2.76391796       0.00000000
Si      -3.27266819      -1.76862159      -1.69583407       0.00000000
Si       0.46538901       2.89834938      -2.88704281       0.00000000
