10
Lattice="16.28999089631971 0.0 0.0 0.0 16.28999089631971 0.0 0.0 0.0 34.54679606040008" Properties=species:S:1:pos:R:3:initial_magmoms:R:1 pbc="T T T"
Si      -2.17377018       0.69747264      -0.55976205       0.00000000
Si       0.93128531       2.11338315       0.54518329       0.00000000
Si       1.01857039      -0.85009365      -1.99877510       0.00000000
Si      -0.79908966      -1.19420361       1.92142478       0.00000000
Si      -1.72118511       2.64015288      -1.72319515       0.00000000
Si      -3.09466017       1.65343500       1.42961631       0.00000000
Si      -0.14330313       0.18057465      -3.78532911       0.00000000
Si       1.37855169       2.06619102       2.87488233       0.00000000
Si      -3.24118872      -0.98126073      -1.78268477       0.00000000
Si      -0.69921567       3.82865499       0.00145097       0.00000000
