10
Lattice="16.28999089631971 0.0 0.0 0.0 16.28999089631971 0.0 0.0 0.0 34.54679606040008" Properties=species:S:1:pos:R:3:initial_magmoms:R:1 pbc="T T T"
Si      -0.34044471       1.89636777      -1.45452457       0.00000000
Si       0.95633703       1.30737024       1.83258906       0.00000000
Si       1.79983323      -0.97839369      -1.38370360       0.00000000
Si      -1.59322716      -1.27503459       1.58060805       0.00000000
Si       0.04632876      -2.06586522      -2.49507465       0.00000000
Si       2.40701772       2.65351068       0.67392860       0.00000000
Si       2.46985040      -2.76493428       0.02394094       0.00000000
Si      -2.64543084       2.70109377       0.19000748       0.00000000
Si       1.51847235       3.38524119      -1.31896286       0.00000000
Si       2.42705494       0.03767877       3.11359189       0.00000000
