10
Lattice="16.28999089631971 0.0 0.0 0.0 16.28999089631971 0.0 0.0 0.0 34.54679606040008" Properties=species:S:1:pos:R:3:initial_magmoms:R:1 pbc="T T T"
Si       1.45068069       1.34614044      -1.15866046       0.00000000
Si       1.47071791      -1.26969147       1.28100282       0.00000000
Si      -1.26701991       1.47225762       1.29943355       0.00000000
Si      -0.95633703      -1.30737024      -1.83258906       0.00000000
Si      -1.29678174       0.58899753      -3.28711363       0.00000000
Si      -2.54956419      -2.58240483      -0.25198102       0.00000000
Si       0.09847305      -2.60775207       2.64852815       0.00000000
Si      -2.62656702       0.10880091       2.65198283       0.00000000
Si       0.56213532       2.07787095      -3.15155193       0.00000000
Si      -2.59255350       2.85417090      -0.09562213       0.00000000
