10
Lattice="16.28999089631971 0.0 0.0 0.0 16.28999089631971 0.0 0.0 0.0 34.54679606040008" Properties=species:S:1:pos:R:3:initial_magmoms:R:1 pbc="T T T"
Si       1.26701991      -1.47225762      -1.29943355       0.00000000
Si       1.36256076       1.35133695       1.35130559       0.00000000
Si      -1.35954711      -1.36345671       1.35254928       0.00000000
Si      -1.32553359       1.38191328      -1.39505568       0.00000000
Si       2.71770060      -0.12611718      -2.45809401       0.00000000
Si      -2.33474796      -0.07853409      -2.94201513       0.00000000
Si      -2.69944848      -2.71640637      -0.03492338       0.00000000
Si       0.00317655       2.70914103       2.70875361       0.00000000
Si      -2.71158453      -0.00521280       2.71079187       0.00000000
Si       0.00441459      -2.71842633       2.70927181       0.00000000
