10
Lattice="16.28999089631971 0.0 0.0 0.0 16.28999089631971 0.0 0.0 0.0 34.54679606040008" Properties=species:S:1:pos:R:3:initial_magmoms:R:1 pbc="T T T"
Si      -1.45896498      -1.78650801       0.43335525       0.00000000
Si      -1.20762657       2.03623371      -0.27720365       0.00000000
Si       0.34710732      -0.88112610      -2.19296275       0.00000000
Si       0.84126447      -0.29901924       2.33529563       0.00000000
Si      -0.83390139      -1.98961173       2.74574634       0.00000000
Si      -1.83060504       2.37456072       2.00278253       0.00000000
Si       0.55029249       3.57586677      -0.88978778       0.00000000
Si       2.29434876       2.27918277      -1.95638615       0.00000000
Si       1.36052451       0.74082033      -3.55600735       0.00000000
Si      -0.19460034       1.48625073       3.62313181       0.00000000
