10
Lattice="16.28999089631971 0.0 0.0 0.0 16.28999089631971 0.0 0.0 0.0 34.54679606040008" Properties=species:S:1:pos:R:3:initial_magmoms:R:1 pbc="T T T"
Si       0.96524507      -0.54353214       2.09799355       0.00000000
Si      -2.39169780       0.53164044       0.14751490       0.00000000
Si       1.31096448      -1.87949133      -1.12366972       0.00000000
Si       1.31568533      -2.83734333       1.71486937       0.00000000
Si      -0.58665177       3.75298794      -0.04073070       0.00000000
Si      -0.37071153       0.11280825       3.90126822       0.00000000
Si      -0.37025541      -3.74777514      -1.28973626       0.00000000
Si      -3.23296227       0.83065968      -2.18778072       0.00000000
Si      -0.82722249      -3.84457032       1.03840818       0.00000000
Si       2.96095904       0.53470296       2.88925381       0.00000000
