10
Lattice="16.28999089631971 0.0 0.0 0.0 16.28999089631971 0.0 0.0 0.0 34.54679606040008" Properties=species:S:1:pos:R:3:initial_magmoms:R:1 pbc="T T T"
Si       1.39000941      -1.80963981       0.54397415       0.00000000
Si      -0.17148483      -0.08115678      -2.37972283       0.00000000
Si       1.45298655       1.80465507       0.64073978       0.00000000
Si      -2.62418868      -0.27455166       0.77571419       0.00000000
Si      -2.46827709      -0.09581778      -1.69137753       0.00000000
Si       1.07781156      -1.60156764       3.06582258       0.00000000
Si       3.11950242      -1.87475094      -1.10725998       0.00000000
Si       0.39493476       3.78354798      -0.12568131       0.00000000
Si       3.72391029       1.49480298      -0.24127496       0.00000000
Si       0.40799934       1.85078835      -3.59314517       0.00000000
