10
Lattice="16.28999089631971 0.0 0.0 0.0 16.28999089631971 0.0 0.0 0.0 34.54679606040008" Properties=species:S:1:pos:R:3:initial_magmoms:R:1 pbc="T T T"
Si       2.19115880      -0.21383883      -0.80317891       0.00000000
Si       0.13944240       1.31380479       1.96263913       0.00000000
Si      -0.46496547      -2.05574913       1.09665411       0.00000000
Si      -1.05538023       0.92504394      -2.07173797       0.00000000
Si      -1.48693491      -3.24425124      -0.62799201       0.00000000
Si       2.27029562       1.41050223      -2.47648846       0.00000000
Si       0.32183471       2.80567557      -2.39730716       0.00000000
Si       2.30181677      -2.47671531      -1.52410185       0.00000000
Si      -3.75595272      -0.26215497      -0.17580874       0.00000000
Si       1.16525695       3.38633262       1.34808583       0.00000000
