10
Lattice="16.28999089631971 0.0 0.0 0.0 16.28999089631971 0.0 0.0 0.0 34.54679606040008" Properties=species:S:1:pos:R:3:initial_magmoms:R:1 pbc="T T T"
Si       0.57948417       1.93194513      -1.21342234       0.00000000
Si       0.17148483       0.08115678       2.37972283       0.00000000
Si       0.35282511      -1.98079884      -1.29792385       0.00000000
Si      -2.29679226      -0.01466100       0.68834530       0.00000000
Si      -1.59273846       2.17276020      -2.07367259       0.00000000
Si      -2.57546529       2.27913390       0.06691718       0.00000000
Si       2.70057249       1.18719891      -1.89592923       0.00000000
Si       1.56149424      -1.72848303       2.92369698       0.00000000
Si       3.75595272       0.26215497       0.17580874       0.00000000
Si      -1.63861110      -3.19008699      -1.17258801       0.00000000
