10
Lattice="16.28999089631971 0.0 0.0 0.0 16.28999089631971 0.0 0.0 0.0 34.54679606040008" Properties=species:S:1:pos:R:3:initial_magmoms:R:1 pbc="T T T"
Si      -1.35747828      -1.35692442       1.35841533       0.00000000
Si       1.35938421      -1.35780408      -1.35744802       0.00000000
Si       1.35764118       1.35897696       1.35838078       0.00000000
Si      -1.35866745       1.36156707      -1.36145545       0.00000000
Si       2.70967860       0.00764001      -2.70450781       0.00000000
Si      -0.00317655      -2.70914103      -2.70875361       0.00000000
Si       0.01513341       2.71487385      -2.70717482       0.00000000
Si      -2.71476108      -2.71435383       0.00203826       0.00000000
Si       2.71461447       2.71476108       0.00203826       0.00000000
Si      -2.71415835       2.71528550       0.00076003       0.00000000
