10
Lattice="16.28999089631971 0.0 0.0 0.0 16.28999089631971 0.0 0.0 0.0 34.54679606040008" Properties=species:S:1:pos:R:3:initial_magmoms:R:1 pbc="T T T"
Si       0.50183693       1.01199996      -2.05809198       0.00000000
Si       0.99644205       1.03707744       1.89057447       0.00000000
Si      -2.15521587       0.92866032       0.42858779       0.00000000
Si      -1.11856914      -2.10616668      -0.15694618       0.00000000
Si       1.91696552      -2.34678627      -0.62294817       0.00000000
Si       3.04547156       0.53348121      -0.22714531       0.00000000
Si      -3.13562952      -0.78139872      -0.95407940       0.00000000
Si      -2.50194852       0.03574026       2.58976747       0.00000000
Si      -2.08875267      -2.26869201       2.04541330       0.00000000
Si      -0.91313595       2.94707996      -2.16491073       0.00000000
