10
Lattice="16.28999089631971 0.0 0.0 0.0 16.28999089631971 0.0 0.0 0.0 34.54679606040008" Properties=species:S:1:pos:R:3:initial_magmoms:R:1 pbc="T T T"
Si      -0.07895763      -0.67122945      -2.23970459       0.00000000
Si       0.98041365       1.71005904       1.38266719       0.00000000
Si      -2.47313151       0.47320821       0.20023334       0.00000000
Si       2.01706038      -1.32476796       0.79713322       0.00000000
Si      -2.45985516      -1.87253550       0.65286572       0.00000000
Si      -1.83687669      -2.21086251      -1.62712046       0.00000000
Si       3.13562952       0.78139872       0.95407940       0.00000000
Si       1.04687685      -1.48729329       2.99949270       0.00000000
Si      -0.82385046      -2.76084549       2.27321500       0.00000000
Si       0.63368100       0.81713898       3.54384687       0.00000000
