10
Lattice="16.28999089631971 0.0 0.0 0.0 16.28999089631971 0.0 0.0 0.0 34.54679606040008" Properties=species:S:1:pos:R:3:initial_magmoms:R:1 pbc="T T T"
Si       0.62977140       0.03042972      -2.28402815       0.00000000
Si       1.05805179      -1.97889291       0.76642110       0.00000000
Si       1.30484529       1.70175670       1.17839187       0.00000000
Si      -2.41675182       0.05835078      -0.54525239       0.00000000
Si      -2.39544450       1.98244806      -1.93928548       0.00000000
Si      -0.33332598       2.04861967      -3.06461344       0.00000000
Si      -0.39493476      -3.78354798       0.12568131       0.00000000
Si       1.73328858      -1.68135606       3.03248491       0.00000000
Si       2.95813368       0.36154026      -2.50733877       0.00000000
Si       0.01306458      -1.93275963      -3.46746386       0.00000000
