10
Lattice="16.28999089631971 0.0 0.0 0.0 16.28999089631971 0.0 0.0 0.0 34.54679606040008" Properties=species:S:1:pos:R:3:initial_magmoms:R:1 pbc="T T T"
Si       0.46370300      -2.28719745       0.18734738       0.00000000
Si      -1.16187352       1.03066830      -1.78655401       0.00000000
Si       2.27389015       0.31369653      -0.66975911       0.00000000
Si      -1.01857039       0.85009365       1.99877510       0.00000000
Si       1.71296029      -2.13136731       2.22156751       0.00000000
Si       0.34176257       0.51162003      -3.52439701       0.00000000
Si      -1.57795270      -3.30561567       0.06094058       0.00000000
Si      -3.19234057       1.54756629       1.43901305       0.00000000
Si       3.38615506       1.52107875       0.94302442       0.00000000
Si      -1.09555693       3.39817545      -1.38615642       0.00000000
