10
Lattice="16.28999089631971 0.0 0.0 0.0 16.28999089631971 0.0 0.0 0.0 34.54679606040008" Properties=species:S:1:pos:R:3:initial_magmoms:R:1 pbc="T T T"
Si       1.44376641      -1.17343386       1.52397749       0.00000000
Si       0.88379766       1.90158057      -1.23472188       0.00000000
Si      -1.27827630       1.50350184       1.54884774       0.00000000
Si      -0.74367108      -2.07757773      -1.23275271       0.00000000
Si      -2.63344140      -2.73799062       0.01511769       0.00000000
Si       2.79147069      -2.61522918       0.10525378       0.00000000
Si      -0.96917355       3.56430087      -1.08136749       0.00000000
Si       0.07506432      -2.53588059       2.90946024       0.00000000
Si      -2.69223201       2.84895810       0.29080127       0.00000000
Si      -2.63584580       0.17682795       2.91253491       0.00000000
