10
Lattice="16.28999089631971 0.0 0.0 0.0 16.28999089631971 0.0 0.0 0.0 34.54679606040008" Properties=species:S:1:pos:R:3:initial_magmoms:R:1 pbc="T T T"
Si      -1.41395571       1.34545626      -1.25804646       0.00000000
Si      -1.35756950      -1.32667389       1.36368717       0.00000000
Si       1.35749457       1.38531789       1.36054341       0.00000000
Si       1.27827630      -1.50350184      -1.54884774       0.00000000
Si       0.30910275       2.06079903      -2.63021522       0.00000000
Si       2.16207396       0.39807873      -2.78356961       0.00000000
Si      -2.72044616      -0.08863389      -2.44612699       0.00000000
Si       2.72204271      -2.67693570      -0.02487025       0.00000000
Si      -0.00698841      -2.68257204       2.72078972       0.00000000
Si      -2.70040894      -2.70446580      -0.00646371       0.00000000
