10
Lattice="16.28999089631971 0.0 0.0 0.0 16.28999089631971 0.0 0.0 0.0 34.54679606040008" Properties=species:S:1:pos:R:3:initial_magmoms:R:1 pbc="T T T"
Si       1.29829671      -0.44336493      -1.90746786       0.00000000
Si      -0.11065797       2.26287648       0.72092294       0.00000000
Si       0.91119744      -0.93304233       2.02914175       0.00000000
Si      -2.14455311      -0.85960701      -0.76562652       0.00000000
Si      -1.13628126      -1.29430566       3.16448829       0.00000000
Si       1.82700495       2.41251642       2.08849318       0.00000000
Si      -2.30181677       2.47671531       1.52410185       0.00000000
Si       0.13432734       0.65661732      -3.66804267       0.00000000
Si       1.34174214      -2.79621108      -2.13292038       0.00000000
Si       3.39325587       0.60318612      -1.57167282       0.00000000
