10
Lattice="16.28999089631971 0.0 0.0 0.0 16.28999089631971 0.0 0.0 0.0 34.54679606040008" Properties=species:S:1:pos:R:3:initial_magmoms:R:1 pbc="T T T"
Si       0.07913682       1.62434106      -1.67330955       0.00000000
Si      -2.19115880       0.21383883       0.80317891       0.00000000
Si       1.93766292       0.14963994       1.36757023       0.00000000
Si       0.11065797      -2.26287648      -0.72092294       0.00000000
Si       1.02185541      -3.19591881       1.30821880       0.00000000
Si       1.93254786       2.92034088      -1.06383463       0.00000000
Si      -3.24653903       1.13888277      -1.26855906       0.00000000
Si       3.68702973      -0.46745784      -0.17100674       0.00000000
Si      -2.65612427      -1.84191030       1.89983302       0.00000000
Si      -2.05171640       1.52764362       2.76581804       0.00000000
