10
Lattice="16.28999089631971 0.0 0.0 0.0 16.28999089631971 0.0 0.0 0.0 34.54679606040008" Properties=species:S:1:pos:R:3:initial_magmoms:R:1 pbc="T T T"
Si      -1.72305846      -0.71534277       1.37216876       0.00000000
Si       0.84940947       1.82579949       1.26800666       0.00000000
Si      -1.01183706       0.59393340      -2.08320859       0.00000000
Si       1.85297121      -1.66272030      -0.15335439       0.00000000
Si      -0.30910275      -2.06079903       2.63021522       0.00000000
Si       1.06969914       0.57580263      -3.15305437       0.00000000
Si       1.63310508      -1.71735696      -2.56209654       0.00000000
Si       2.41103403       0.68488047       2.61320783       0.00000000
Si      -3.02954891      -2.14943292       0.18408823       0.00000000
Si       0.96917355      -3.56430087       1.08136749       0.00000000
