10
Lattice="10.86 0.0 0.0 0.0 10.86 0.0 0.0 0.0 10.86" Properties=species:S:1:pos:R:3:initial_magmoms:R:1 pbc="T T T"
Si      -0.78888126      -1.09005078       1.66753128       0.00000000
Si      -0.85056606       1.77287328      -1.13580396       0.00000000
Si      -2.15551452       0.36331044      -2.34968046       0.00000000
Si       0.53906868      -2.61790074      -2.49269580       0.00000000
Si      -2.18885472       0.17172918       2.96201070       0.00000000
Si      -2.22919962       2.94467814       0.33154494       0.00000000
Si      -3.48941574      -1.14738072      -1.07972292       0.00000000
Si       0.41072520      -2.42810052       2.98583754       0.00000000
Si       0.63544032       2.95294260      -2.46232038       0.00000000
Si      -0.77441574      -1.14738072      -3.79472292       0.00000000
