10
Lattice="10.86 0.0 0.0 0.0 10.86 0.0 0.0 0.0 10.86" Properties=species:S:1:pos:R:3:initial_magmoms:R:1 pbc="T T T"
Si      -1.42989276       1.44646512      -1.26817650       0.00000000
Si      -1.42989276      -1.26853488       1.44682350       0.00000000
Si       1.28510724       1.44646512       1.44682350       0.00000000
Si       2.63438622      -0.03350310      -2.50470696       0.00000000
Si       2.75635488      -2.65831080       0.12469452       0.00000000
Si      -0.07239276       2.80396512      -2.62567650       0.00000000
Si      -0.07239276      -2.62603488       2.80432350       0.00000000
Si       2.64260724       2.80396512       0.08932350       0.00000000
Si       2.64260724       0.08896512       2.80432350       0.00000000
Si      -2.88467664       0.10852398      -2.57190864       0.00000000
