10
Lattice="16.28999089631971 0.0 0.0 0.0 16.28999089631971 0.0 0.0 0.0 34.3005442915855" Properties=species:S:1:pos:R:3:initial_magmoms:R:1 pbc="T T T"
Si      -1.63903205       0.96452927      -1.48946767       0.00000000
Si       1.04197193      -1.72372539      -1.39390630       0.00000000
Si       1.78343897       1.71326002      -0.44083084       0.00000000
Si      -1.76726693       0.82388630       1.89514043       0.00000000
Si       1.26460899      -1.45863822       2.86052979       0.00000000
Si      -2.67087323       2.57206882       0.00418467       0.00000000
Si      -0.35511941       2.22714436      -3.05504829       0.00000000
Si       2.25666347      -0.60896811      -3.09710078       0.00000000
Si       3.34231052       1.61947849       1.34317576       0.00000000
Si       3.33809141      -0.61468590       2.05323173       0.00000000
