10
Lattice="16.28999089631971 0.0 0.0 0.0 16.28999089631971 0.0 0.0 0.0 34.3005442915855" Properties=species:S:1:pos:R:3:initial_magmoms:R:1 pbc="T T T"
Si      -1.08414674      -1.40499621       1.70045528       0.00000000
Si      -2.16631099       1.18781793      -0.82249321       0.00000000
Si       1.57822407       1.36480878       1.64279603       0.00000000
Si       0.26370252      -1.22663700      -2.80204733       0.00000000
Si       1.50910560       2.00886651      -2.24078721       0.00000000
Si      -2.57151401      -2.61449613       0.21214899       0.00000000
Si      -3.75535718      -0.71964333      -0.90632379       0.00000000
Si      -2.39981305       0.00992061       3.24505424       0.00000000
Si       0.61888968       0.68751945      -4.04979893       0.00000000
Si       3.27577239       2.60363070       0.45921594       0.00000000
