10
Lattice="16.28999089631971 0.0 0.0 0.0 16.28999089631971 0.0 0.0 0.0 34.3005442915855" Properties=species:S:1:pos:R:3:initial_magmoms:R:1 pbc="T T T"
Si       0.35518716       1.91415645      -1.24775160       0.00000000
Si       1.95015735      -1.25503047      -0.02284418       0.00000000
Si      -1.43268269      -1.64499678      -0.85109988       0.00000000
Si      -0.26370252       1.22663700       2.80204733       0.00000000
Si       1.24540308       3.23550351       0.56126012       0.00000000
Si      -1.73924420      -2.90009241       1.37819664       0.00000000
Si      -0.09198963      -2.64389958      -2.54688544       0.00000000
Si       2.25047979      -2.02984803      -2.20350250       0.00000000
Si      -1.71492649       2.76739407      -1.86276070       0.00000000
Si       0.77193423      -3.55441284       1.05700616       0.00000000
