10
Lattice="16.28999089631971 0.0 0.0 0.0 16.28999089631971 0.0 0.0 0.0 34.3005442915855" Properties=species:S:1:pos:R:3:initial_magmoms:R:1 pbc="T T T"
Si       1.81071495       1.37023335       0.69221967       0.00000000
Si       0.36882189      -2.14621076      -0.96360573       0.00000000
Si      -1.31035131      -0.46924974       1.94017707       0.00000000
Si      -0.97272477       1.40853114      -1.76757664       0.00000000
Si      -3.39081563      -0.54876123       0.80685215       0.00000000
Si       0.80374860       3.49242939       0.42220564       0.00000000
Si       3.35016882       1.12829427      -1.06801664       0.00000000
Si      -1.76438619      -2.74598086      -1.79467408       0.00000000
Si      -1.32598971       1.50612453       3.20607367       0.00000000
Si       0.27145656       3.36587238      -1.89520903       0.00000000
