10
Lattice="16.28999089631971 0.0 0.0 0.0 16.28999089631971 0.0 0.0 0.0 34.3005442915855" Properties=species:S:1:pos:R:3:initial_magmoms:R:1 pbc="T T T"
Si       1.35044100       1.33845156       1.37569270       0.00000000
Si       1.35431802      -1.35871632      -1.35837091       0.00000000
Si      -1.35837423       1.35602847      -1.35847382       0.00000000
Si      -1.35733167      -1.35459495       1.38876121       0.00000000
Si      -0.09532908       2.65774608       2.75169410       0.00000000
Si      -2.71259451       2.71283886       0.00397887       0.00000000
Si       2.71233387       2.71542897       0.00343006       0.00000000
Si       2.71378368      -0.00112401      -2.71499250       0.00000000
Si      -0.00144981       2.71417464      -2.71475240       0.00000000
Si       2.71423980      -2.71586880       0.00178363       0.00000000
