10
Lattice="16.28999089631971 0.0 0.0 0.0 16.28999089631971 0.0 0.0 0.0 34.3005442915855" Properties=species:S:1:pos:R:3:initial_magmoms:R:1 pbc="T T T"
Si       1.09999854      -0.90872136      -1.90299526       0.00000000
Si      -1.50781869       1.90376343      -0.10070645       0.00000000
Si       0.30263562      -2.20863078       1.69496234       0.00000000
Si       2.20626873      -2.01466575       0.11000191       0.00000000
Si       1.36164852       1.90944864       1.86797439       0.00000000
Si      -2.78586693       1.00647765       1.65808924       0.00000000
Si       2.06138547      -0.26303463       2.76318479       0.00000000
Si      -2.20965705      -2.86940205       0.95208074       0.00000000
Si      -0.03145599       3.83982993       0.25653391       0.00000000
Si      -0.69483366      -1.00654281       3.67002309       0.00000000
