10
Lattice="16.28999089631971 0.0 0.0 0.0 16.28999089631971 0.0 0.0 0.0 34.3005442915855" Properties=species:S:1:pos:R:3:initial_magmoms:R:1 pbc="T T T"
Si       1.25822331       1.93243383       0.24929650       0.00000000
Si       1.00696635      -2.12219604       0.27001404       0.00000000
Si      -0.53229204      -0.12655701      -2.31741467       0.00000000
Si      -1.81724724       0.08772165       1.58657256       0.00000000
Si      -0.71066754       3.29479911       0.11322616       0.00000000
Si      -1.77647337      -2.08389825      -2.18978227       0.00000000
Si       1.58076531      -0.90248229      -3.10114824       0.00000000
Si      -0.80374860      -3.49242939      -0.42220564       0.00000000
Si       1.71273060      -2.02738824       2.57041562       0.00000000
Si      -3.68300610       0.38639880       0.17983785       0.00000000
