10
Lattice="16.28999089631971 0.0 0.0 0.0 16.28999089631971 0.0 0.0 0.0 34.3005442915855" Properties=species:S:1:pos:R:3:initial_magmoms:R:1 pbc="T T T"
Si      -2.13982182      -0.90600093       0.48826852       0.00000000
Si      -0.22204899       0.18366975      -2.38042480       0.00000000
Si      -0.55180746       2.09126133       1.06448369       0.00000000
Si       1.82692350      -1.28624211       0.94878789       0.00000000
Si      -2.77806402       1.38577401       0.73506107       0.00000000
Si      -1.33209846      -2.58211161       2.02997595       0.00000000
Si       1.55893671       1.69569126      -2.73468102       0.00000000
Si       0.78095889      -3.35803689       1.24624237       0.00000000
Si       0.11183085      -2.01075615      -3.14820862       0.00000000
Si       3.65642082      -0.95708637      -0.50370377       0.00000000
