10
Lattice="16.28999089631971 0.0 0.0 0.0 16.28999089631971 0.0 0.0 0.0 34.3005442915855" Properties=species:S:1:pos:R:3:initial_magmoms:R:1 pbc="T T T"
Si       1.36031274       1.34265438       1.39348440       0.00000000
Si      -1.35316143      -1.37310039       1.39211238       0.00000000
Si       1.67817951      -1.12673043      -1.36565635       0.00000000
Si      -1.44044325       1.33993395      -1.59743212       0.00000000
Si       0.25710507       2.57875587      -2.78101221       0.00000000
Si      -2.71293660       2.69540856      -0.00093641       0.00000000
Si      -2.69759142      -2.73012255      -0.00692185       0.00000000
Si       2.73662226       2.69556237       0.02157505       0.00000000
Si       2.72756502      -2.72591973       0.03047262       0.00000000
Si       0.00542457       2.70187977       2.75350174       0.00000000
