10
Lattice="16.28999089631971 0.0 0.0 0.0 16.28999089631971 0.0 0.0 0.0 34.3005442915855" Properties=species:S:1:pos:R:3:initial_magmoms:R:1 pbc="T T T"
Si       1.35537687      -1.35576783       1.35706749       0.00000000
Si      -1.35716877      -1.35650088      -1.35686169       0.00000000
Si      -1.35651717       1.35593073       1.35946853       0.00000000
Si       1.35713619       1.35873261      -1.35614138       0.00000000
Si       0.01682757      -2.70923877       2.70936721       0.00000000
Si       2.71533123      -2.71215468       0.00116622       0.00000000
Si       0.00014661      -2.71391400      -2.71403208       0.00000000
Si      -2.71557558      -2.71257822       0.00030871       0.00000000
Si       2.71476108       0.00153126      -2.71375768       0.00000000
Si       2.71441899       2.71437012       0.00301845       0.00000000
