10
Lattice="16.28999089631971 0.0 0.0 0.0 16.28999089631971 0.0 0.0 0.0 34.3005442915855" Properties=species:S:1:pos:R:3:initial_magmoms:R:1 pbc="T T T"
Si      -0.31697082      -2.07953253       1.02095627       0.00000000
Si      -2.18843118       0.75940722      -0.35926410       0.00000000
Si       0.99702945      -0.35895015      -2.13394095       0.00000000
Si       1.32874272       1.45528344       1.35737620       0.00000000
Si       3.21592293       0.67561146       0.26164470       0.00000000
Si       2.79896409       1.17749007      -1.98332718       0.00000000
Si      -0.46029024      -1.49760486       3.27241096       0.00000000
Si      -3.31260408      -1.22445414      -0.91019975       0.00000000
Si      -1.82192247       2.64222171      -1.85329374       0.00000000
Si      -3.14110296       1.09560024       1.76661622       0.00000000
