10
Lattice="16.28999089631971 0.0 0.0 0.0 16.28999089631971 0.0 0.0 0.0 34.3005442915855" Properties=species:S:1:pos:R:3:initial_magmoms:R:1 pbc="T T T"
Si       0.11999214      -2.25250301      -0.68295852       0.00000000
Si       1.90925316       1.24292700       0.66388741       0.00000000
Si      -1.04976018      -0.63156330       2.05007608       0.00000000
Si      -1.12787073       1.19420361      -1.76157404       0.00000000
Si       0.51859215      -2.15949037       2.95681147       0.00000000
Si      -3.08934963       1.97126919      -0.64948117       0.00000000
Si       1.21303485       2.90519118       2.21451298       0.00000000
Si       0.24404049      -3.70860488       1.19527173       0.00000000
Si      -2.91185379      -2.02748761       1.69952432       0.00000000
Si      -1.90868301      -3.06014885      -1.57628239       0.00000000
