10
Lattice="16.28999089631971 0.0 0.0 0.0 16.28999089631971 0.0 0.0 0.0 34.3005442915855" Properties=species:S:1:pos:R:3:initial_magmoms:R:1 pbc="T T T"
Si      -1.26925164      -1.38098475       1.47715377       0.00000000
Si       1.51153281       1.14420960       1.45135974       0.00000000
Si       0.96700698      -1.15548228      -1.91126170       0.00000000
Si      -1.77885171       2.37109095       0.88680677       0.00000000
Si      -2.01904776       1.95667335      -2.03532683       0.00000000
Si      -0.11349243       2.36203371       2.73862559       0.00000000
Si       2.77503408      -2.25769626      -0.56084851       0.00000000
Si       3.09513258      -0.40413861       2.17565044       0.00000000
Si      -3.08584728      -2.35555029      -0.06393625       0.00000000
Si       2.90623374       2.66206293      -0.00054881       0.00000000
