10
Lattice="16.28999089631971 0.0 0.0 0.0 16.28999089631971 0.0 0.0 0.0 34.3005442915855" Properties=species:S:1:pos:R:3:initial_magmoms:R:1 pbc="T T T"
Si      -0.64210293       2.24920917      -0.29858640       0.00000000
Si      -0.22323816      -1.38684915      -1.93136183       0.00000000
Si      -0.73441836      -0.78231096       2.13699370       0.00000000
Si       2.38093011       0.11148876       0.31786332       0.00000000
Si       2.63687859      -1.83498705       1.75598305       0.00000000
Si       1.75005099      -0.95881311      -3.13956487       0.00000000
Si       0.03323160      -3.55428252      -1.10746229       0.00000000
Si       1.18384317      -0.87231321       3.43684786       0.00000000
Si       1.00385496       3.65006772       0.47427389       0.00000000
Si       2.95828029       2.36543832       0.82736389       0.00000000
