10
Lattice="16.28999089631971 0.0 0.0 0.0 16.28999089631971 0.0 0.0 0.0 34.3005442915855" Properties=species:S:1:pos:R:3:initial_magmoms:R:1 pbc="T T T"
Si       1.83026295       1.34786718      -0.12245301       0.00000000
Si      -1.72388925       0.54187056      -1.52301362       0.00000000
Si       0.47387610      -1.97307738       1.28201786       0.00000000
Si      -0.06354729       2.24238366       1.17565181       0.00000000
Si      -2.33523666       1.73682351       1.87802445       0.00000000
Si       3.26601468       0.26955063       1.30115757       0.00000000
Si      -0.65982645      -0.05110173      -3.51059407       0.00000000
Si      -3.07340172      -1.38026799      -1.20950647       0.00000000
Si      -0.18759564       3.69848553      -0.70257844       0.00000000
Si      -1.49941305      -2.40111342       2.49022091       0.00000000
