10
Lattice="16.28999089631971 0.0 0.0 0.0 16.28999089631971 0.0 0.0 0.0 34.3005442915855" Properties=species:S:1:pos:R:3:initial_magmoms:R:1 pbc="T T T"
Si       1.34671778       1.35554270       1.35535246       0.00000000
Si      -1.35786924       1.35487481      -1.35792501       0.00000000
Si       1.35911447      -1.35815694      -1.35689599       0.00000000
Si      -1.35975888      -1.35142917       1.39126515       0.00000000
Si       2.57811146      -0.12539490       2.67263130       0.00000000
Si      -0.03367143       2.71071758       2.71468379       0.00000000
Si       0.00031348       2.71241174      -2.71506110       0.00000000
Si       2.71822175       2.71070129       0.00205803       0.00000000
Si      -2.71464705      -0.00186710      -2.71533551       0.00000000
Si       2.71564793      -0.00213751      -2.71506110       0.00000000
