10
Lattice="16.28999089631971 0.0 0.0 0.0 16.28999089631971 0.0 0.0 0.0 34.3005442915855" Properties=species:S:1:pos:R:3:initial_magmoms:R:1 pbc="T T T"
Si      -1.35127179      -1.33591846       1.35950283       0.00000000
Si      -1.35422028       1.35545832      -1.35655298       0.00000000
Si       1.35873261      -1.36006187      -1.35651868       0.00000000
Si       1.34078103       1.36707309       1.37548690       0.00000000
Si       0.03228678      -2.56069238       2.76589454       0.00000000
Si       2.68293042      -0.00421911       2.71609012       0.00000000
Si      -2.71181259       2.71166598       0.00236674       0.00000000
Si       0.00218286       2.71251306      -2.71344897       0.00000000
Si      -2.71270854      -0.00205254      -2.71338037       0.00000000
Si       2.71691533      -0.00252495      -2.71365478       0.00000000
