10
Lattice="16.28999089631971 0.0 0.0 0.0 16.28999089631971 0.0 0.0 0.0 34.3005442915855" Properties=species:S:1:pos:R:3:initial_magmoms:R:1 pbc="T T T"
Si      -0.85893912      -1.40486589       1.63630838       0.00000000
Si      -1.54520424       1.21124295      -1.26061431       0.00000000
Si       1.28616066      -1.09905372      -1.64838218       0.00000000
Si       1.22515461       1.45953513       1.41397213       0.00000000
Si       2.69101745       2.13949602      -0.26768160       0.00000000
Si      -1.30834764       0.25212033       3.29645565       0.00000000
Si       3.27294023       0.20101860      -1.41599586       0.00000000
Si      -2.24142255       2.87350713       0.29001126       0.00000000
Si       2.16001557      -0.00760743       2.97118341       0.00000000
Si      -0.21794391       2.13936570      -2.98757908       0.00000000
