10
Lattice="16.28999089631971 0.0 0.0 0.0 16.28999089631971 0.0 0.0 0.0 34.3005442915855" Properties=species:S:1:pos:R:3:initial_magmoms:R:1 pbc="T T T"
Si      -0.98564274      -0.95526189       1.89959951       0.00000000
Si      -1.51267311       1.53917694      -1.01625709       0.00000000
Si       0.44940852      -1.65698622      -1.66014727       0.00000000
Si       1.38947184       0.90691317       1.77848422       0.00000000
Si       2.53350225       1.20741480      -1.88248352       0.00000000
Si       2.52481968      -2.16662539       0.80801837       0.00000000
Si       0.85120137       3.09443211       1.24610517       0.00000000
Si       3.46836321      -0.25972776      -0.32527224       0.00000000
Si       1.30834764      -0.25212033      -3.29645565       0.00000000
Si      -1.38069153       3.26247975       0.54668238       0.00000000
