10
Lattice="16.28999089631971 0.0 0.0 0.0 16.28999089631971 0.0 0.0 0.0 34.3005442915855" Properties=species:S:1:pos:R:3:initial_magmoms:R:1 pbc="T T T"
Si      -0.53827047       2.18751894      -0.53237905       0.00000000
Si       2.32183229       0.22296123      -0.26298242       0.00000000
Si      -0.21621717      -0.55092780       2.34176807       0.00000000
Si      -1.38947184      -0.90691317      -1.77848422       0.00000000
Si      -2.37511458      -1.86217506       0.12111529       0.00000000
Si       2.07889137      -1.16664093      -2.10375646       0.00000000
Si       1.13534784      -3.07353856      -0.97046584       0.00000000
Si      -0.61763535      -3.39240227       0.68899542       0.00000000
Si       1.83057134       0.28913121       3.08262594       0.00000000
Si       0.60359337       2.38255911      -2.63798773       0.00000000
