10
Lattice="16.28999089631971 0.0 0.0 0.0 16.28999089631971 0.0 0.0 0.0 34.3005442915855" Properties=species:S:1:pos:R:3:initial_magmoms:R:1 pbc="T T T"
Si       1.35337320      -1.35309627       1.36183527       0.00000000
Si      -1.35057132      -1.35990549      -1.36492232       0.00000000
Si      -1.36001952       1.36345671       1.35994874       0.00000000
Si       1.36645407       1.36306575      -1.37703042       0.00000000
Si       0.15765462      -2.60226886      -2.79894656       0.00000000
Si       2.70857088      -2.71201133       0.00099472       0.00000000
Si      -2.65992894      -0.00834048      -2.76576419       0.00000000
Si       2.71184517       2.71586880      -0.00109762       0.00000000
Si      -0.00420282      -2.71072279       2.71766794       0.00000000
Si       2.71088406       0.00480555       2.71783945       0.00000000
