10
Lattice="16.28999089631971 0.0 0.0 0.0 16.28999089631971 0.0 0.0 0.0 34.3005442915855" Properties=species:S:1:pos:R:3:initial_magmoms:R:1 pbc="T T T"
Si       1.34539110       1.35280305       1.37593280       0.00000000
Si      -1.30691412       1.38453597      -1.38318051       0.00000000
Si      -1.36645407      -1.36306575       1.37703042       0.00000000
Si       1.50763950      -1.18369656      -1.54677362       0.00000000
Si      -2.53490319      -0.10063962      -2.77249538       0.00000000
Si       2.69962767      -2.69262297       0.00158126       0.00000000
Si       2.70563868       2.72663649      -0.01740068       0.00000000
Si      -2.72047887       2.71813311       0.01184741       0.00000000
Si      -2.71702539      -2.72297124       0.01210810       0.00000000
Si       2.70270863      -0.00218286       2.73828258       0.00000000
