10
Lattice="16.28999089631971 0.0 0.0 0.0 16.28999089631971 0.0 0.0 0.0 34.3005442915855" Properties=species:S:1:pos:R:3:initial_magmoms:R:1 pbc="T T T"
Si       1.80545328      -1.24137945      -0.82784410       0.00000000
Si      -1.43578431      -1.03949748      -1.55035117       0.00000000
Si      -0.24241149      -0.90865620       2.25769739       0.00000000
Si      -0.06123411       2.41492734      -0.56637090       0.00000000
Si      -1.56745638      -2.81321784       1.75269019       0.00000000
Si      -2.26628109       0.81081846      -2.80966205       0.00000000
Si       2.02167045      -0.69045165      -3.16961217       0.00000000
Si      -2.83849992      -2.55261042      -0.31172352       0.00000000
Si       3.85224179      -0.40132044      -0.08698623       0.00000000
Si      -2.33427555       2.74704786      -1.54071271       0.00000000
