10
Lattice="16.28999089631971 0.0 0.0 0.0 16.28999089631971 0.0 0.0 0.0 34.3005442915855" Properties=species:S:1:pos:R:3:initial_magmoms:R:1 pbc="T T T"
Si      -1.35273789       1.35674523      -1.36145796       0.00000000
Si      -1.35021294      -1.35601218       1.37198824       0.00000000
Si       1.36168110      -1.35897696      -1.36029175       0.00000000
Si       1.35806472       1.36458072       1.38756069       0.00000000
Si       0.13766679      -2.51742402       2.85325807       0.00000000
Si      -2.71534752       2.71423480       0.00116622       0.00000000
Si      -2.71169856      -0.00144981      -2.71907427       0.00000000
Si      -2.71407690      -2.71837746      -0.00065171       0.00000000
Si       0.00317655       2.71414279      -2.71903997       0.00000000
Si       2.71782360       2.71600989      -0.00370446       0.00000000
