10
Lattice="16.28999089631971 0.0 0.0 0.0 16.28999089631971 0.0 0.0 0.0 34.3005442915855" Properties=species:S:1:pos:R:3:initial_magmoms:R:1 pbc="T T T"
Si       0.60338160      -1.22763069       2.12564022       0.00000000
Si      -1.83192453       1.58099337       0.91774588       0.00000000
Si       1.66403979       0.97800273      -1.74730500       0.00000000
Si      -0.79387686      -1.62844614      -1.93036711       0.00000000
Si       2.79815841      -2.28843549       1.29820773       0.00000000
Si      -2.09085408      -3.19002183      -0.61569511       0.00000000
Si      -1.26333837      -2.65919589       2.52445287       0.00000000
Si       3.14969986       2.36483559      -0.41150386       0.00000000
Si      -3.20533443      -1.99112670       1.23917646       0.00000000
Si      -2.71282257       2.74225860      -0.95732873       0.00000000
