10
Lattice="16.28999089631971 0.0 0.0 0.0 16.28999089631971 0.0 0.0 0.0 34.3005442915855" Properties=species:S:1:pos:R:3:initial_magmoms:R:1 pbc="T T T"
Si      -1.59791868       0.95166180       1.52992316       0.00000000
Si      -1.21891554      -0.87329061      -1.92961250       0.00000000
Si       1.58904619       1.90746126       0.08383058       0.00000000
Si       1.18384317      -1.89485280       1.11847277       0.00000000
Si      -0.08431704       2.12294538       2.82039268       0.00000000
Si       2.67121044      -0.68535288       2.60677906       0.00000000
Si       0.49581873      -1.43216793      -3.61140343       0.00000000
Si       3.75535718       0.71964333       0.90632379       0.00000000
Si      -2.71598283      -0.68471757       2.75912845       0.00000000
Si      -3.18495564      -2.18009070      -0.83086255       0.00000000
