10
Lattice="16.28999089631971 0.0 0.0 0.0 16.28999089631971 0.0 0.0 0.0 34.3005442915855" Properties=species:S:1:pos:R:3:initial_magmoms:R:1 pbc="T T T"
Si       1.24418133       1.95734124      -0.12763240       0.00000000
Si      -0.07763814      -0.93794562      -2.16861882       0.00000000
Si      -2.03118381       1.17263565       0.39445648       0.00000000
Si       0.97272477      -1.40853114       1.76757664       0.00000000
Si      -3.26452089      -0.77441031       0.74140668       0.00000000
Si       1.77647337       2.08389825       2.18978227       0.00000000
Si       3.35723868       1.18141596      -0.91136597       0.00000000
Si      -1.43891199      -2.84464125      -1.88560488       0.00000000
Si       2.78343972      -0.03829779       2.45979631       0.00000000
Si       1.34154666      -3.55474190       0.80397091       0.00000000
