10
Lattice="16.28999089631971 0.0 0.0 0.0 16.28999089631971 0.0 0.0 0.0 34.3005442915855" Properties=species:S:1:pos:R:3:initial_magmoms:R:1 pbc="T T T"
Si       1.29033090      -1.34579835      -1.39764506       0.00000000
Si      -1.11718449      -1.63422909       1.34128923       0.00000000
Si      -1.45306474       1.37409408      -1.35041318       0.00000000
Si       1.61049456       1.34749251       1.40803813       0.00000000
Si       0.60556446      -3.46344948       1.25896788       0.00000000
Si       2.53682541      -2.76367995       0.00346436       0.00000000
Si       2.62888020       0.00767259      -2.74994477       0.00000000
Si      -1.78790732      -0.45370908       3.33710182       0.00000000
Si      -0.08044002      -2.70858717      -2.74425088       0.00000000
Si      -0.08301384       2.71937115      -2.74754373       0.00000000
