10
Lattice="16.28999089631971 0.0 0.0 0.0 16.28999089631971 0.0 0.0 0.0 34.3005442915855" Properties=species:S:1:pos:R:3:initial_magmoms:R:1 pbc="T T T"
Si      -0.95504246      -1.84200804       0.97660564       0.00000000
Si       0.67072283      -1.18052001      -1.99581259       0.00000000
Si       1.60699058       1.59591501       0.87751132       0.00000000
Si      -2.19477681       1.06080480       0.82743249       0.00000000
Si       3.48152975       0.21504429       1.47612475       0.00000000
Si       1.78790732       0.45370908      -3.33710182       0.00000000
Si      -2.79815841       2.28843549      -1.29820773       0.00000000
Si       0.70757081       2.57650785       2.86327384       0.00000000
Si      -1.41451839       1.59554034       3.29230528       0.00000000
Si       0.28589927      -3.07257093       2.52030250       0.00000000
