10
Lattice="16.28999089631971 0.0 0.0 0.0 16.28999089631971 0.0 0.0 0.0 34.3005442915855" Properties=species:S:1:pos:R:3:initial_magmoms:R:1 pbc="T T T"
Si      -0.89941977       0.98059284       1.98576252       0.00000000
Si       1.87453917      -1.38087072       0.59861343       0.00000000
Si      -1.60699058      -1.59591501      -0.87751132       0.00000000
Si       0.53121690       1.83115890      -1.53632224       0.00000000
Si       1.79141130       0.20528658      -2.80657500       0.00000000
Si       0.88604568       0.33770799       3.37222560       0.00000000
Si       3.48224814       0.37644561       0.78706073       0.00000000
Si       1.47352824      -1.87893747       2.90975110       0.00000000
Si      -3.80176739      -0.53511021      -0.05007882       0.00000000
Si      -1.03281206       3.32244324       1.66721319       0.00000000
