10
Lattice="16.28999089631971 0.0 0.0 0.0 16.28999089631971 0.0 0.0 0.0 34.3005442915855" Properties=species:S:1:pos:R:3:initial_magmoms:R:1 pbc="T T T"
Si       1.23139368      -1.48093760       1.31727884       0.00000000
Si      -1.34671778      -1.35554270      -1.35535246       0.00000000
Si       1.37150397       1.35515858      -1.35329443       0.00000000
Si      -1.38038921       1.35517487       1.35933133       0.00000000
Si       2.54169612      -0.11411960       2.73073646       0.00000000
Si      -2.70647666      -2.70697187       0.03591269       0.00000000
Si      -2.70458702      -0.00066789      -2.71327747       0.00000000
Si       0.01239669      -2.71369964      -2.71224845       0.00000000
Si       0.00974794       2.71400522      -2.71224845       0.00000000
Si       2.72595231      -0.00130972      -2.71410068       0.00000000
