10
Lattice="10.86 0.0 0.0 0.0 10.86 0.0 0.0 0.0 10.86" Properties=species:S:1:pos:R:3:initial_magmoms:R:1 pbc="T T T"
Si      -1.31057394       1.47246396      -1.00861164       0.00000000
Si      -1.19811864      -1.27480110       1.46408004       0.00000000
Si       1.51688136      -1.27480110      -1.25091996       0.00000000
Si       1.51688136       1.44019890       1.46408004       0.00000000
Si       0.06279252       2.64932958      -2.45599986       0.00000000
Si      -2.55561864      -2.63230110       0.10658004       0.00000000
Si       0.15938136      -2.63230110      -2.60841996       0.00000000
Si      -2.74129206       0.28154550       2.48655990       0.00000000
Si      -2.83436226      -0.01069710      -2.59561602       0.00000000
Si       0.15938136      -2.63230110       2.82158004       0.00000000
