10
Lattice="10.86 0.0 0.0 0.0 10.86 0.0 0.0 0.0 10.86" Properties=species:S:1:pos:R:3:initial_magmoms:R:1 pbc="T T T"
Si       1.19614212      -1.51226586      -1.13478312       0.00000000
Si      -1.51885788       1.20273414      -1.13478312       0.00000000
Si       1.40455638       1.15498272       1.73023692       0.00000000
Si      -1.51885788      -1.51226586       1.58021688       0.00000000
Si       2.55364212      -0.15476586      -2.49228312       0.00000000
Si      -0.16135788       2.56023414      -2.49228312       0.00000000
Si       2.41819620       2.75851602       0.29933418       0.00000000
Si       2.27489850      -2.96316186       0.23552082       0.00000000
Si      -0.16135788      -2.86976586      -2.49228312       0.00000000
Si      -2.87635788      -0.15476586      -2.49228312       0.00000000
