10
Lattice="10.86 0.0 0.0 0.0 10.86 0.0 0.0 0.0 10.86" Properties=species:S:1:pos:R:3:initial_magmoms:R:1 pbc="T T T"
Si       1.31057394      -1.47246396       1.00861164       0.00000000
Si       1.37336646       1.17686562      -1.44738822       0.00000000
Si      -1.52378832      -1.48316106      -1.58700438       0.00000000
Si      -2.39413044       2.63498352      -0.09228828       0.00000000
Si       0.11245530      -2.74726506       2.47269168       0.00000000
Si       2.82745530      -0.03226506       2.47269168       0.00000000
Si      -2.60254470      -2.74726506      -0.24230832       0.00000000
Si       2.82745530       2.68273494      -0.24230832       0.00000000
Si      -2.60254470      -0.03226506      -2.95730832       0.00000000
Si       2.82745530      -2.74726506      -0.24230832       0.00000000
