10
Lattice="10.86 0.0 0.0 0.0 10.86 0.0 0.0 0.0 10.86" Properties=species:S:1:pos:R:3:initial_magmoms:R:1 pbc="T T T"
Si      -1.19895486      -1.41841374       1.34576034       0.00000000
Si       1.51604514       1.29658626       1.34576034       0.00000000
Si       1.51604514      -1.41841374      -1.36923966       0.00000000
Si       0.17697456       2.57076834      -2.45565234       0.00000000
Si      -2.73190902       0.10624338       2.55405480       0.00000000
Si      -2.55645486      -2.77591374      -0.01173966       0.00000000
Si      -0.05771004       2.75822280       2.57829432       0.00000000
Si      -2.59203222      -0.28961448      -2.78373294       0.00000000
Si       0.15854514      -2.77591374       2.70326034       0.00000000
Si       0.15854514      -2.77591374      -2.72673966       0.00000000
