10
Lattice="10.86 0.0 0.0 0.0 10.86 0.0 0.0 0.0 10.86" Properties=species:S:1:pos:R:3:initial_magmoms:R:1 pbc="T T T"
Si       1.34579292       1.24064640       0.95288898       0.00000000
Si      -1.36920708      -1.47435360       0.95288898       0.00000000
Si       1.32234618      -1.27442100      -1.60684560       0.00000000
Si      -1.36920708       1.24064640      -1.76211102       0.00000000
Si      -0.07113300      -2.58009708       2.31333204       0.00000000
Si      -0.01170708       2.59814640       2.31038898       0.00000000
Si       2.70923334       0.03264516       2.21789436       0.00000000
Si      -2.72670708      -0.11685360       2.31038898       0.00000000
Si       2.70329292       2.59814640      -0.40461102       0.00000000
Si      -2.72670708       2.59814640      -0.40461102       0.00000000
