10
Lattice="10.86 0.0 0.0 0.0 10.86 0.0 0.0 0.0 10.86" Properties=species:S:1:pos:R:3:initial_magmoms:R:1 pbc="T T T"
Si      -1.44149124       1.17016500      -1.21706934       0.00000000
Si       1.27350876       1.17016500       1.49793066       0.00000000
Si       1.27350876      -1.54483500      -1.21706934       0.00000000
Si      -0.08399124       2.52766500      -2.57456934       0.00000000
Si       2.63100876       2.52766500       0.14043066       0.00000000
Si       2.63100876      -0.18733500      -2.57456934       0.00000000
Si      -2.82225336      -0.38425938      -2.46490506       0.00000000
Si      -0.06556182      -2.98565292      -2.30348202       0.00000000
Si      -2.79899124       2.52766500       0.14043066       0.00000000
Si      -0.08399124       2.52766500       2.85543066       0.00000000
