10
Lattice="10.86 0.0 0.0 0.0 10.86 0.0 0.0 0.0 10.86" Properties=species:S:1:pos:R:3:initial_magmoms:R:1 pbc="T T T"
Si      -1.36299516       1.26901272       1.34968080       0.00000000
Si       1.30069134      -1.68731820       1.07658438       0.00000000
Si       1.49147982       1.20354864      -1.42570080       0.00000000
Si      -1.13346906      -1.60898502      -1.35790182       0.00000000
Si      -2.55225204       2.58810090      -0.04951074       0.00000000
Si      -2.55225204      -0.12689910       2.66548926       0.00000000
Si       0.16274796       2.58810090       2.66548926       0.00000000
Si      -2.55225204      -0.12689910      -2.76451074       0.00000000
Si       0.16274796       2.58810090      -2.76451074       0.00000000
Si      -2.55225204      -2.84189910      -0.04951074       0.00000000
