10
Lattice="10.86 0.0 0.0 0.0 10.86 0.0 0.0 0.0 10.86" Properties=species:S:1:pos:R:3:initial_magmoms:R:1 pbc="T T T"
Si       1.35750000       1.35750000       1.35750000       0.00000000
Si      -1.35750000      -1.35750000       1.35750000       0.00000000
Si      -1.35750000       1.35750000      -1.35750000       0.00000000
Si       1.35750000      -1.35750000      -1.35750000       0.00000000
Si      -2.62211442       0.06144588      -2.70676812       0.00000000
Si       2.73542766       0.12671448       2.60252298       0.00000000
Si       2.51826024       0.22611606      -2.81040510       0.00000000
Si      -0.02876814       2.68794774       2.69630994       0.00000000
Si       0.05113974      -2.65717050       2.74175904       0.00000000
Si      -2.65371702      -0.12458592       2.76410892       0.00000000
