10
Lattice="10.86 0.0 0.0 0.0 10.86 0.0 0.0 0.0 10.86" Properties=species:S:1:pos:R:3:initial_magmoms:R:1 pbc="T T T"
Si       1.55516286       1.10846934       1.26905616       0.00000000
Si      -1.15983714      -1.60653066       1.26905616       0.00000000
Si      -1.51568676      -0.30818508      -1.79496252       0.00000000
Si       1.55516286      -1.60653066      -1.44594384       0.00000000
Si       0.73901214       0.02136162      -2.93135292       0.00000000
Si       0.19766286       2.46596934       2.62655616       0.00000000
Si      -2.51733714      -0.24903066       2.62655616       0.00000000
Si      -2.76981042       2.67239622      -0.08611980       0.00000000
Si      -2.51733714      -2.96403066      -0.08844384       0.00000000
Si       2.91266286      -0.24903066       2.62655616       0.00000000
