10
Lattice="10.86 0.0 0.0 0.0 10.86 0.0 0.0 0.0 10.86" Properties=species:S:1:pos:R:3:initial_magmoms:R:1 pbc="T T T"
Si      -1.24075500      -1.55396826       1.12319550       0.00000000
Si      -1.24075500       1.16103174      -1.59180450       0.00000000
Si       1.42069434       1.60029702       1.05104166       0.00000000
Si       1.47424500      -1.55396826      -1.59180450       0.00000000
Si       0.02284944       2.38996020       2.49811494       0.00000000
Si      -2.59825500      -0.19646826       2.48069550       0.00000000
Si      -2.59825500       2.51853174      -0.23430450       0.00000000
Si       0.11674500       2.51853174      -2.94930450       0.00000000
Si       2.84338692       2.60986434      -0.44322918       0.00000000
Si      -2.59825500      -2.91146826      -0.23430450       0.00000000
