10
Lattice="10.86 0.0 0.0 0.0 10.86 0.0 0.0 0.0 10.86" Properties=species:S:1:pos:R:3:initial_magmoms:R:1 pbc="T T T"
Si      -1.36914192       1.26616740      -1.14857532       0.00000000
Si       1.34585808      -1.44883260      -1.14857532       0.00000000
Si      -1.42269258      -1.00956732       1.49427084       0.00000000
Si       1.34585808       1.26616740       1.56642468       0.00000000
Si      -0.01164192       2.62366740      -2.50607532       0.00000000
Si       2.70335808      -0.09133260      -2.50607532       0.00000000
Si      -2.72664192      -0.09133260      -2.50607532       0.00000000
Si      -0.01164192      -2.80633260      -2.50607532       0.00000000
Si       2.70335808       2.62366740       0.20892468       0.00000000
Si      -2.72664192       2.62366740       0.20892468       0.00000000
