10
Lattice="10.86 0.0 0.0 0.0 10.86 0.0 0.0 0.0 10.86" Properties=species:S:1:pos:R:3:initial_magmoms:R:1 pbc="T T T"
Si       0.90563712       1.68365838       0.96907038       0.00000000
Si       0.90563712      -1.03134162      -1.74592962       0.00000000
Si      -1.80936288      -1.03134162       0.96907038       0.00000000
Si       2.26313712       0.32615838       2.32657038       0.00000000
Si       2.26313712      -2.38884162      -0.38842962       0.00000000
Si      -0.45186288      -2.38884162       2.32657038       0.00000000
Si       2.26313712       3.04115838      -0.38842962       0.00000000
Si       2.26313712       0.32615838      -3.10342962       0.00000000
Si      -0.45186288       3.04115838       2.32657038       0.00000000
Si      -0.40735860      -2.35578378      -3.05950092       0.00000000
