10
Lattice="16.290000149 0.0 0.0 0.0 16.290000149 0.0 0.0 0.0 29.1751946751" Properties=species:S:1:pos:R:3:initial_magmoms:R:1 pbc="T T T"
Si      -1.38018329       1.44752453      -1.16400274       0.00000000
Si       1.52674768      -1.26283339      -1.21689737       0.00000000
Si       0.84150883       1.67222716       1.38938112       0.00000000
Si      -0.92082484      -1.72898804       1.28020754       0.00000000
H        0.23946300       2.97287616       0.92400759       0.00000000
Si       2.55857258      -2.08832915       0.73667367       0.00000000
Si       0.11401371      -2.65810448      -2.51539776       0.00000000
Si      -2.61204614       0.08849200      -2.60788313       0.00000000
Si       0.09431910       1.08448558       3.55003769       0.00000000
Si       0.73049248      -3.38354706       1.37292631       0.00000000
