10
Lattice="16.290000149 0.0 0.0 0.0 16.290000149 0.0 0.0 0.0 29.1751946751" Properties=species:S:1:pos:R:3:initial_magmoms:R:1 pbc="T T T"
Si      -1.37231848      -1.40625055      -1.31193265       0.00000000
Si      -1.34623819       1.27940032       1.46045190       0.00000000
Si       1.33993396      -1.33639903       1.42141548       0.00000000
Si       1.34140006       1.41812596      -1.35998419       0.00000000
Si       2.67170663      -0.02230101      -2.67378989       0.00000000
Si       0.05903496      -2.77832469      -2.59588920       0.00000000
Si      -2.68089419      -2.69591357       0.15833378       0.00000000
Si      -2.77962789       2.59897178       0.17770611       0.00000000
Si      -2.72142371      -0.04386897      -2.68810324       0.00000000
Si       2.68814324       2.75092491       0.02876674       0.00000000
