10
Lattice="16.290000149 0.0 0.0 0.0 16.290000149 0.0 0.0 0.0 29.1751946751" Properties=species:S:1:pos:R:3:initial_magmoms:R:1 pbc="T T T"
Si      -0.89665048       0.89349022      -0.82282802       0.00000000
Si       0.91127890      -1.56258568       1.48708885       0.00000000
H       -2.00311616      -0.34016778       1.37208023       0.00000000
Si       1.93748375       0.58927447       1.87905759       0.00000000
Si       1.88703362      -1.96706150      -0.66779103       0.00000000
Si      -1.40107033      -1.64081678       1.83745376       0.00000000
Si      -2.21157929      -0.57161611      -2.10148927       0.00000000
Si       0.44826822       2.21032496      -2.20856224       0.00000000
Si      -2.07497135       2.37123758       0.69903766       0.00000000
Si       3.05587371       2.02792583       0.32419476       0.00000000
