10
Lattice="16.290000149 0.0 0.0 0.0 16.290000149 0.0 0.0 0.0 29.1751946751" Properties=species:S:1:pos:R:3:initial_magmoms:R:1 pbc="T T T"
Si      -1.29928344      -1.29020385       1.47205487       0.00000000
Si      -1.45006368       1.38468259      -1.22630637       0.00000000
Si       1.36213769       1.39541770       1.31803902       0.00000000
Si       1.43237854      -1.30692228      -1.35215941       0.00000000
Si      -2.62431205      -2.62630543       0.13485358       0.00000000
Si      -0.12754373       2.70958088      -2.59158207       0.00000000
Si       0.08541072      -2.52096370      -2.83277428       0.00000000
Si       2.71100509      -2.67999824       0.03525239       0.00000000
Si       2.65636843       0.04241916       2.74963664       0.00000000
Si       0.01183253       2.72196128       2.72486690       0.00000000
