10
Lattice="16.290000149 0.0 0.0 0.0 16.290000149 0.0 0.0 0.0 29.1751946751" Properties=species:S:1:pos:R:3:initial_magmoms:R:1 pbc="T T T"
Si       1.37999107       1.31784472      -1.36329850       0.00000000
Si      -1.37344249      -1.32662503      -1.36359025       0.00000000
Si       1.35676153      -1.37036368       1.33791608       0.00000000
Si      -1.36901161       1.37938834       1.32245322       0.00000000
Si      -0.05339862       2.63741618      -2.64604428       0.00000000
Si       0.04533507      -2.65746917      -2.66541661       0.00000000
Si       2.72635958      -0.00894321       2.66608764       0.00000000
Si      -2.72968274       0.01692531       2.66579589       0.00000000
Si      -0.01457955       2.73241946       2.68353441       0.00000000
Si       0.00117288      -2.72642474       2.69491273       0.00000000
