10
Lattice="16.290000149 0.0 0.0 0.0 16.290000149 0.0 0.0 0.0 29.1751946751" Properties=species:S:1:pos:R:3:initial_magmoms:R:1 pbc="T T T"
H       -0.17813115       1.38755778       0.61063682       0.00000000
Si       0.83443897      -1.24423836       1.71298363       0.00000000
Si       1.89591167       0.01617434      -1.33803278       0.00000000
Si      -1.90029368      -0.54823996      -1.28604258       0.00000000
Si       0.64324324       1.12281270      -2.94153065       0.00000000
Si      -2.62808201       1.64230080      -0.88263716       0.00000000
Si      -0.68958829       2.66979256      -1.78464666       0.00000000
Si       1.87392017       0.60981290       2.66483894       0.00000000
Si       2.33155514      -2.27282155      -1.03717817       0.00000000
Si      -0.99810460      -2.26619152       2.65495147       0.00000000
