10
Lattice="16.290000149 0.0 0.0 0.0 16.290000149 0.0 0.0 0.0 29.1751946751" Properties=species:S:1:pos:R:3:initial_magmoms:R:1 pbc="T T T"
Si       0.65358739      -0.42358887       2.13135008       0.00000000
Si      -1.06999237      -1.76028113      -1.06337750       0.00000000
Si      -1.70245163       1.59651775      -0.01435420       0.00000000
Si       1.78654061       0.58538116      -1.44210070       0.00000000
Si      -0.31118787       3.03370302      -1.18894753       0.00000000
H        3.08469072       1.13077036      -0.51812228       0.00000000
H       -0.55853524      -3.04251591       1.33190599       0.00000000
Si      -1.99484084      -0.71733016      -2.89855559       0.00000000
Si       0.75929320       1.92505448      -3.05653927       0.00000000
Si      -1.25379244      -1.21399597       3.25347475       0.00000000
