10
Lattice="16.290000149 0.0 0.0 0.0 16.290000149 0.0 0.0 0.0 29.1751946751" Properties=species:S:1:pos:R:3:initial_magmoms:R:1 pbc="T T T"
H       -0.89871931       0.74360593       0.97888613       0.00000000
Si       1.15059529       1.64048447      -1.18130363       0.00000000
Si       1.40228997      -1.17131617       1.46016014       0.00000000
Si      -1.59386248      -1.12897846      -1.33931649       0.00000000
Si      -1.98061967       2.45503334       1.76473400       0.00000000
Si      -0.61781455       2.79547806      -2.21343449       0.00000000
Si       2.61705694       0.43267869      -2.51965734       0.00000000
Si      -0.05704758      -2.34988139       2.87664502       0.00000000
Si      -2.22948200       2.96867334      -0.53361431       0.00000000
Si       2.86228823      -2.45206856       0.11562130       0.00000000
