10
Lattice="16.290000149 0.0 0.0 0.0 16.290000149 0.0 0.0 0.0 29.1751946751" Properties=species:S:1:pos:R:3:initial_magmoms:R:1 pbc="T T T"
Si       1.36479250       1.35578413       1.34681451       0.00000000
Si       1.36979353      -1.36357075      -1.33604886       0.00000000
Si      -1.34793235      -1.34775316       1.37838207       0.00000000
Si      -1.34858395       1.36060597      -1.36513653       0.00000000
Si      -0.01011609       2.71958294       2.67997503       0.00000000
Si       2.72103275       0.01223379      -2.68257162       0.00000000
Si       2.71810055      -0.02046024       2.68648110       0.00000000
Si      -2.69640227      -2.70958088       0.02818324       0.00000000
Si       0.02267568      -2.72044631      -2.69820953       0.00000000
Si      -2.70883154       0.00612504      -2.71845711       0.00000000
