10
Lattice="16.290000149 0.0 0.0 0.0 16.290000149 0.0 0.0 0.0 29.1751946751" Properties=species:S:1:pos:R:3:initial_magmoms:R:1 pbc="T T T"
Si       0.81352261      -0.98091865      -1.94546033       0.00000000
Si      -1.33089301      -1.33318990       1.39708337       0.00000000
Si       1.59386248       1.12897846       1.33931649       0.00000000
Si      -1.50449554       1.31030245      -1.29368648       0.00000000
H        1.26412030       0.30633345      -2.60268994       0.00000000
H        0.69514318       1.87258439       2.31820262       0.00000000
Si      -2.53500095       2.79889896       0.17589725       0.00000000
Si      -1.07191459      -1.68650372      -3.21192636       0.00000000
Si      -2.52959267       0.14002884       2.82614276       0.00000000
Si      -2.89795845      -2.45575010      -0.06733635       0.00000000
