10
Lattice="16.290000149 0.0 0.0 0.0 16.290000149 0.0 0.0 0.0 29.1751946751" Properties=species:S:1:pos:R:3:initial_magmoms:R:1 pbc="T T T"
Si      -2.06853680       0.72499134      -0.84628487       0.00000000
Si      -0.78537349      -1.50002231       1.70692394       0.00000000
Si       1.04558995      -0.67602523      -2.07143882       0.00000000
Si       0.92752003       2.07732688       0.82040647       0.00000000
H       -1.39574350       2.28284152       1.75497549       0.00000000
Si      -1.32134707       1.31273292      -3.00694144       0.00000000
Si      -2.66680334       2.23895626       0.91837678       0.00000000
H        0.39447864      -3.58569619      -0.53472297       0.00000000
Si      -2.32494140      -2.81195376       0.51660517       0.00000000
Si      -3.35388297      -1.26404537      -0.96246050       0.00000000
