10
Lattice="16.290000149 0.0 0.0 0.0 16.290000149 0.0 0.0 0.0 29.1751946751" Properties=species:S:1:pos:R:3:initial_magmoms:R:1 pbc="T T T"
H       -1.24960624       0.77796154       0.33606907       0.00000000
H        0.39204166       1.93758149      -0.20612275       0.00000000
H        1.55565266      -1.50193801      -0.67902348       0.00000000
Si       1.48379747       1.20946735      -1.35206605       0.00000000
Si       1.32734831       0.04031775       2.01285503       0.00000000
Si      -1.29226688      -1.74296486      -1.17625632       0.00000000
H       -2.27099869      -0.88200577       2.19671711       0.00000000
Si       2.15769849      -2.80258701      -0.21364995       0.00000000
Si       0.09534374       2.37372995      -2.83139429       0.00000000
Si      -2.57760908      -0.38237517      -2.66649609       0.00000000
