10
Lattice="16.290000149 0.0 0.0 0.0 16.290000149 0.0 0.0 0.0 29.1751946751" Properties=species:S:1:pos:R:3:initial_magmoms:R:1 pbc="T T T"
Si      -1.38305359       1.34211682       1.33809113       0.00000000
Si      -1.36546039      -1.33985251      -1.37193435       0.00000000
Si       1.34470693       1.37173204      -1.36242324       0.00000000
Si       1.34004799      -1.36661698       1.37385992       0.00000000
Si      -2.67947696       2.64619649      -0.12323602       0.00000000
Si       2.66128592      -2.70337439      -0.03194684       0.00000000
Si       0.00470781       2.69869916       2.67116412       0.00000000
Si       2.72952799       0.01262475       2.68516822       0.00000000
Si      -2.73331541      -0.05036868       2.68184225       0.00000000
Si      -0.01808190      -2.68786631      -2.73812120       0.00000000
