10
Lattice="16.290000149 0.0 0.0 0.0 16.290000149 0.0 0.0 0.0 29.1751946751" Properties=species:S:1:pos:R:3:initial_magmoms:R:1 pbc="T T T"
Si       1.38927963      -1.34666173       1.33187681       0.00000000
Si       1.37567748       1.35016408      -1.34836080       0.00000000
Si      -1.31493619      -1.36580248      -1.39296967       0.00000000
Si      -1.37097944       1.33692031       1.38001588       0.00000000
Si      -2.66254840      -2.71780733      -0.03366817       0.00000000
Si       0.02873882      -2.69607647       2.68525574       0.00000000
Si      -2.70227971       2.70708037       0.01082400       0.00000000
Si       0.00337529       2.70617465       2.70658281       0.00000000
Si       0.02950119       2.71085313      -2.70354859       0.00000000
Si      -2.68331815      -0.00788436      -2.73246121       0.00000000
