10
Lattice="16.290000149 0.0 0.0 0.0 16.290000149 0.0 0.0 0.0 29.1751946751" Properties=species:S:1:pos:R:3:initial_magmoms:R:1 pbc="T T T"
Si       1.23787711      -1.39110085       1.37269291       0.00000000
Si      -1.36055710       1.34662915       1.33870381       0.00000000
Si      -1.29430567      -1.43664769      -1.31238778       0.00000000
Si       1.45818307       1.29810124      -1.30179719       0.00000000
Si       2.67770135      -0.06116895       2.58250071       0.00000000
Si      -2.64784178      -0.07032393      -2.65141252       0.00000000
Si       0.09897804       2.62244567      -2.68764811       0.00000000
Si       0.02674818       2.70096347       2.63160256       0.00000000
Si      -2.60034014      -2.78758555       0.10891100       0.00000000
Si      -2.70598079       2.70352100       0.02141459       0.00000000
