10
Lattice="16.290000149 0.0 0.0 0.0 16.290000149 0.0 0.0 0.0 29.1751946751" Properties=species:S:1:pos:R:3:initial_magmoms:R:1 pbc="T T T"
Si      -1.28865304      -1.43872630       1.28178300       0.00000000
Si       1.30435660      -1.41153829      -1.33934566       0.00000000
Si      -1.43089732       1.62988619      -0.92759614       0.00000000
Si       1.19190673       1.14945173       1.69087758       0.00000000
Si      -0.80454682       2.03226548       2.67011382       0.00000000
Si      -2.32029875       0.18336024       2.59883882       0.00000000
Si       2.61921628       2.56605621       0.32559517       0.00000000
Si      -0.08666280       2.65148097      -2.56301168       0.00000000
Si       0.23884398      -2.43642365       2.78733975       0.00000000
Si       1.76645504      -0.58964262       3.21157625       0.00000000
