10
Lattice="16.290000149 0.0 0.0 0.0 16.290000149 0.0 0.0 0.0 29.1751946751" Properties=species:S:1:pos:R:3:initial_magmoms:R:1 pbc="T T T"
Si      -1.35400852      -1.38044719       1.35871799       0.00000000
Si       1.38877138      -1.34597755      -1.35953490       0.00000000
Si      -1.32932917       1.31704651      -1.44580595       0.00000000
Si       1.40783068       1.35804844       1.33056393       0.00000000
Si      -2.68907177      -2.66782961      -0.07649736       0.00000000
Si       2.70689303      -0.08060292       2.68656863       0.00000000
Si       0.06744060       2.44200134       2.94240591       0.00000000
H       -1.11417085       2.96947155       2.14402671       0.00000000
Si       2.72771166       2.68962563      -0.11780944       0.00000000
Si       0.04473234      -2.67315644      -2.76633361       0.00000000
