10
Lattice="16.290000149 0.0 0.0 0.0 16.290000149 0.0 0.0 0.0 29.1751946751" Properties=species:S:1:pos:R:3:initial_magmoms:R:1 pbc="T T T"
Si       1.30093570       1.29948589      -1.49499533       0.00000000
Si       1.25789752      -1.64781497       1.15169081       0.00000000
Si      -0.99663850       1.76461427       1.26882922       0.00000000
Si      -1.30953682      -1.66620638      -1.17225932       0.00000000
H        0.21522348      -2.74040156       1.37998671       0.00000000
H       -3.06238971      -1.03368196       0.36162654       0.00000000
H       -2.49114827      -1.13873617      -1.97063852       0.00000000
H       -0.29520738      -1.19855305       3.19083269       0.00000000
H       -1.85621294       0.50288859      -3.07804139       0.00000000
Si      -2.52413552       2.76231162      -0.23672753       0.00000000
