10
Lattice="16.290000149 0.0 0.0 0.0 16.290000149 0.0 0.0 0.0 29.1751946751" Properties=species:S:1:pos:R:3:initial_magmoms:R:1 pbc="T T T"
Si       1.33112270       1.36018243       1.37840250       0.00000000
Si      -1.29521791      -1.31421205       1.46942910       0.00000000
Si      -1.38834784       1.36042678      -1.35583840       0.00000000
Si       1.40069240      -1.34944732      -1.36886512       0.00000000
Si      -0.10477728      -2.73546570      -2.53591580       0.00000000
Si       0.07098970       2.53899200      -2.77232328       0.00000000
Si      -2.68532507      -2.65924478       0.19400629       0.00000000
Si       2.67698459       2.68903919      -0.00297003       0.00000000
Si       2.70040961       0.01154961       2.74222615       0.00000000
Si       2.75923281      -2.68892516       0.01194141       0.00000000
