10
Lattice="16.290000149 0.0 0.0 0.0 16.290000149 0.0 0.0 0.0 29.1751946751" Properties=species:S:1:pos:R:3:initial_magmoms:R:1 pbc="T T T"
Si       1.91919008      -1.05836457       0.77699378       0.00000000
Si      -1.25449291      -1.31885959      -1.47104249       0.00000000
Si       1.15966882       1.43965646      -1.50678210       0.00000000
Si      -0.97575472       0.40447582       2.15487988       0.00000000
H       -1.88703362       1.96706150       0.66779103       0.00000000
Si       0.05045013       2.55633597       2.54684862       0.00000000
Si      -2.60286509      -2.60881583      -0.10103370       0.00000000
Si       3.66596679      -0.73493965      -0.71558000       0.00000000
Si       2.59949306       2.76958836      -0.29697431       0.00000000
Si       2.68310963       0.12451913      -2.70279003       0.00000000
