10
Lattice="16.290000149 0.0 0.0 0.0 16.290000149 0.0 0.0 0.0 29.1751946751" Properties=species:S:1:pos:R:3:initial_magmoms:R:1 pbc="T T T"
Si      -0.73832797       1.32483313      -1.78925634       0.00000000
Si      -1.51575193      -1.84890524      -0.07127500       0.00000000
Si       1.99645355      -0.88281375      -0.97923623       0.00000000
Si      -0.62406991       1.07357617       2.04608558       0.00000000
H        2.44503128       1.39474981       1.02845479       0.00000000
H        1.24009255      -0.77287743       2.77211030       0.00000000
Si      -2.49440627       2.29848644      -0.52909216       0.00000000
Si       0.80454682      -2.03226548      -2.67011382       0.00000000
Si      -0.62635051      -0.40237929      -3.59770996       0.00000000
Si       2.57100185      -2.62190810       0.54146244       0.00000000
