10
Lattice="16.290000149 0.0 0.0 0.0 16.290000149 0.0 0.0 0.0 29.1751946751" Properties=species:S:1:pos:R:3:initial_magmoms:R:1 pbc="T T T"
Si      -1.36379881      -1.34733940       1.35092821       0.00000000
Si      -1.36231642       1.36588393      -1.33584464       0.00000000
Si       1.36000324       1.34364808       1.36280252       0.00000000
Si       1.36280512      -1.36245326      -1.34547245       0.00000000
Si       0.01066995      -2.69364926       2.68782316       0.00000000
Si       2.71259453       0.02555901      -2.68050019       0.00000000
Si       0.00824274       2.72443736      -2.67341061       0.00000000
Si      -2.74809045       0.01581759      -2.66054435       0.00000000
Si      -0.00003258       2.69526197       2.71577300       0.00000000
Si      -2.71386515      -2.71707428      -0.00046680       0.00000000
