10
Lattice="16.290000149 0.0 0.0 0.0 16.290000149 0.0 0.0 0.0 29.1751946751" Properties=species:S:1:pos:R:3:initial_magmoms:R:1 pbc="T T T"
H        1.31194774      -0.45945945       0.60745673       0.00000000
Si      -1.25856541       0.24671205       1.93784561       0.00000000
Si       0.27295524       2.02864259      -1.19813772       0.00000000
Si      -0.97262704      -1.99627436      -0.87864016       0.00000000
H        1.88318918      -0.56451367      -1.72480833       0.00000000
Si       3.06480063      -1.09198387      -0.92642913       0.00000000
H       -0.88894531      -2.81787681       1.70140983       0.00000000
Si      -1.92231776       2.75175570      -0.73299759       0.00000000
Si      -3.31969026      -0.44973432       1.03519426       0.00000000
H        1.08548416       0.16755894      -3.39114958       0.00000000
