10
Lattice="16.290000149 0.0 0.0 0.0 16.290000149 0.0 0.0 0.0 29.1751946751" Properties=species:S:1:pos:R:3:initial_magmoms:R:1 pbc="T T T"
Si       1.28865304       1.43872630      -1.28178300       0.00000000
Si      -1.03164571       1.62208654       1.31705581       0.00000000
Si       1.52749702      -0.99769735       1.50555675       0.00000000
Si      -1.57724668      -1.30789153      -1.20724038       0.00000000
Si       2.48055977       2.58817803       0.40909458       0.00000000
Si      -1.55299087       0.36818658       3.24924143       0.00000000
Si       2.59300964       0.02718801      -2.62112866       0.00000000
H        0.66792259      -2.25942302      -2.84131386       0.00000000
Si       3.05510808       0.84908368       1.92979325       0.00000000
Si       2.52413552      -2.76231162       0.23672753       0.00000000
