10
Lattice="16.290000149 0.0 0.0 0.0 16.290000149 0.0 0.0 0.0 29.1751946751" Properties=species:S:1:pos:R:3:initial_magmoms:R:1 pbc="T T T"
Si       0.17813115      -1.38755778      -0.61063682       0.00000000
Si      -0.69525721       1.82851994       1.92156876       0.00000000
Si      -0.51145713       1.28223478      -2.39528348       0.00000000
Si      -2.53417016       0.94754044       0.73568171       0.00000000
Si      -2.44995086       0.25474302      -1.49327399       0.00000000
Si       1.21212262       2.61892703       0.79944410       0.00000000
Si       2.05205132      -0.77774488       2.05420212       0.00000000
Si       1.01257012      -2.63179613       1.10234680       0.00000000
Si       2.91737613       0.95073328       0.67201998       0.00000000
Si       2.07404282      -1.37138344      -1.94866960       0.00000000
