10
Lattice="16.290000149 0.0 0.0 0.0 16.290000149 0.0 0.0 0.0 29.1751946751" Properties=species:S:1:pos:R:3:initial_magmoms:R:1 pbc="T T T"
Si      -1.36024759      -1.35448093      -1.35332058       0.00000000
Si      -1.36863694       1.35356869       1.35174512       0.00000000
Si       1.34858395      -1.36060597       1.36513653       0.00000000
Si       1.35518140       1.34418565      -1.37549373       0.00000000
Si       2.69016320       2.69557148       0.01849707       0.00000000
Si       0.01853802      -2.71384886      -2.68910687       0.00000000
Si      -2.69109499      -2.71208954       0.03005045       0.00000000
Si       2.71337645      -0.00482184       2.71195105       0.00000000
Si      -0.02137248       2.69099399      -2.73517450       0.00000000
Si      -2.71955199       2.71200809      -0.00872338       0.00000000
