10
Lattice="16.290000149 0.0 0.0 0.0 16.290000149 0.0 0.0 0.0 29.1751946751" Properties=species:S:1:pos:R:3:initial_magmoms:R:1 pbc="T T T"
Si       1.41532408       1.32616891      -1.23848701       0.00000000
Si      -1.42586371      -1.38974878      -1.17931972       0.00000000
Si       1.29477808      -1.29485953       1.42573341       0.00000000
Si      -1.08100441       1.42242652       1.49756274       0.00000000
H        2.14091327      -0.35639262       2.22851807       0.00000000
Si      -0.53787952      -2.11665746       2.59090316       0.00000000
Si       1.04498722       2.39142089       2.17935787       0.00000000
Si      -2.13724802      -0.33829443       2.67921648       0.00000000
Si       2.64547973       2.46337382       0.38756329       0.00000000
Si       0.00798210      -2.71156826      -2.46215303       0.00000000
