10
Lattice="16.290000149 0.0 0.0 0.0 16.290000149 0.0 0.0 0.0 29.1751946751" Properties=species:S:1:pos:R:3:initial_magmoms:R:1 pbc="T T T"
Si      -1.34846992      -1.36182772      -1.35019883       0.00000000
Si       1.34374582      -1.38386809       1.34232153       0.00000000
Si      -1.38833155       1.35096229       1.33362732       0.00000000
Si       1.34793235       1.34775316      -1.37838207       0.00000000
Si       2.71542899      -0.02702511       2.66812990       0.00000000
Si      -0.03738555       2.73670374       2.65739343       0.00000000
Si      -2.69174659      -0.00373041      -2.71346816       0.00000000
Si       2.71272485       2.70353729      -0.03156756       0.00000000
Si       0.01057221      -2.71725347      -2.70430714       0.00000000
Si      -0.03139083      -2.71979471       2.70436550       0.00000000
