10
Lattice="16.290000149 0.0 0.0 0.0 16.290000149 0.0 0.0 0.0 29.1751946751" Properties=species:S:1:pos:R:3:initial_magmoms:R:1 pbc="T T T"
Si       0.92484847      -1.04295097       1.83517810       0.00000000
Si      -0.76872511      -2.04667562      -0.87846511       0.00000000
Si      -1.29850849       1.50045562       1.32055684       0.00000000
Si       1.99197380       0.59924395      -1.17068386       0.00000000
H       -0.26018388       2.67854843      -1.43769524       0.00000000
Si      -0.15747543      -1.53168355      -3.06085720       0.00000000
Si       2.25767999      -2.58993083       0.67829410       0.00000000
Si      -1.01364526      -2.07044273       2.73718759       0.00000000
Si       1.99484084       0.71733016       2.89855559       0.00000000
Si       0.29238921       2.31384791       2.88420140       0.00000000
