10
Lattice="16.290000149 0.0 0.0 0.0 16.290000149 0.0 0.0 0.0 29.1751946751" Properties=species:S:1:pos:R:3:initial_magmoms:R:1 pbc="T T T"
Si       0.88475878      -0.85043575       0.88835550       0.00000000
H       -1.90071722      -0.42445224      -1.24432205       0.00000000
Si       0.90196102       0.98605000      -2.06855048       0.00000000
Si      -0.98800480      -0.35100063      -2.45763087       0.00000000
Si      -0.71247574       2.51570708      -0.99166487       0.00000000
Si      -1.44770860       2.17289868       1.26929602       0.00000000
Si       1.91526419      -2.33903225      -0.58122823       0.00000000
Si      -0.50898105      -2.08541324       2.31379716       0.00000000
Si       2.78414022       0.44831709       1.51816043       0.00000000
Si       2.83402020      -0.50666787      -1.75342920       0.00000000
