10
Lattice="16.290000149 0.0 0.0 0.0 16.290000149 0.0 0.0 0.0 29.1751946751" Properties=species:S:1:pos:R:3:initial_magmoms:R:1 pbc="T T T"
Si      -1.41832633       1.22569219      -1.37674826       0.00000000
Si      -1.30796484      -1.49418397       1.27072560       0.00000000
Si       1.51039252      -1.33090930      -1.24537236       0.00000000
Si       0.66300301       1.88278193       1.29438669       0.00000000
Si       0.04652424       2.60822450      -2.59393738       0.00000000
Si       0.25656750      -2.56899818       2.65608055       0.00000000
Si      -2.75874411       2.53057007       0.04615516       0.00000000
Si       0.08446365      -2.73290816      -2.58320091       0.00000000
Si      -2.70894557      -0.18749790      -2.69132418       0.00000000
Si      -0.98831431       3.53734095       1.20166792       0.00000000
