10
Lattice="16.290000149 0.0 0.0 0.0 16.290000149 0.0 0.0 0.0 29.1751946751" Properties=species:S:1:pos:R:3:initial_magmoms:R:1 pbc="T T T"
Si      -1.36700794      -1.35031069       1.35030387       0.00000000
Si       1.30494304       1.29497356       1.47543628       0.00000000
Si      -1.37163430       1.41105610      -1.30479348       0.00000000
Si       1.36314721      -1.34786719      -1.39037308       0.00000000
Si       2.66061314       2.63528219       0.16005804       0.00000000
Si       2.71225244      -2.71024877      -0.01420248       0.00000000
Si      -0.01510083      -2.66906765       2.75789031       0.00000000
Si      -2.72953613       0.02349018       2.69983167       0.00000000
Si      -2.71081892      -2.71971326      -0.01296254       0.00000000
Si      -2.78469408       0.11479563      -2.64865634       0.00000000
