10
Lattice="16.290000149 0.0 0.0 0.0 16.290000149 0.0 0.0 0.0 29.1751946751" Properties=species:S:1:pos:R:3:initial_magmoms:R:1 pbc="T T T"
Si      -1.34486983      -1.34549700      -1.38757226       0.00000000
Si       1.30603447       1.35093786      -1.42129878       0.00000000
Si       1.42405552      -1.36203135       1.29952152       0.00000000
Si      -1.42006447       1.35227364       1.33686577       0.00000000
Si       0.07568334      -2.65198759       2.66953031       0.00000000
Si      -2.68290764      -2.69548189      -0.01773852       0.00000000
Si       2.60034014       2.78758555      -0.10891100       0.00000000
Si      -0.10513566       2.81737996       2.61552703       0.00000000
Si      -2.76478932       2.67902899      -0.05251535       0.00000000
Si       2.67854843      -0.04317176       2.77056401       0.00000000
