10
Lattice="16.290000149 0.0 0.0 0.0 16.290000149 0.0 0.0 0.0 29.1751946751" Properties=species:S:1:pos:R:3:initial_magmoms:R:1 pbc="T T T"
Si      -1.56453234       1.07481421      -1.38535494       0.00000000
Si       1.39297420      -1.47634642      -1.21713077       0.00000000
Si      -0.89676451      -1.44800182       1.66298610       0.00000000
Si       0.41858784       1.82811269       1.46619941       0.00000000
H       -1.24820497      -2.04227732      -1.33771185       0.00000000
H        0.32148315      -1.10324026       2.53657895       0.00000000
Si      -1.89453353       2.00832896       2.05763895       0.00000000
Si      -0.25656750       2.56899818      -2.65608055       0.00000000
Si      -0.15644916      -2.77039146      -2.48365515       0.00000000
Si      -3.05834979       2.15226740       0.03676075       0.00000000
