10
Lattice="16.290000149 0.0 0.0 0.0 16.290000149 0.0 0.0 0.0 29.1751946751" Properties=species:S:1:pos:R:3:initial_magmoms:R:1 pbc="T T T"
Si      -1.35518140      -1.34418565       1.37549373       0.00000000
Si       1.33498180       1.35138583       1.39399080       0.00000000
Si      -1.37655388       1.34680834      -1.35968077       0.00000000
Si       1.36252819      -1.37380087      -1.34952780       0.00000000
Si       2.71443530      -2.69255783       0.05805864       0.00000000
Si       2.69869916       2.71298549       0.06459388       0.00000000
Si      -2.71542899      -2.69866658       0.02217315       0.00000000
Si      -0.02344131       2.74447407      -2.68001296       0.00000000
Si       2.72953613      -0.02349018      -2.69983167       0.00000000
Si      -2.72824922       2.71621091      -0.00113783       0.00000000
