10
Lattice="16.290000149 0.0 0.0 0.0 16.290000149 0.0 0.0 0.0 29.1751946751" Properties=species:S:1:pos:R:3:initial_magmoms:R:1 pbc="T T T"
Si      -1.56869443       1.27762471      -1.12622086       0.00000000
Si      -1.39126375      -1.43718526       1.17459334       0.00000000
Si       1.56706543       1.12256020       1.46441972       0.00000000
Si       1.07048107      -1.10864854      -1.86759174       0.00000000
Si       2.09772848      -2.44832186      -0.25315316       0.00000000
Si       0.31118787      -3.03370302       1.18894753       0.00000000
Si       0.04665456       2.31353840      -2.51574786       0.00000000
Si       1.82604386       0.76924639      -3.14459001       0.00000000
Si      -2.53695575       2.73334799       0.38546267       0.00000000
Si      -2.98216146      -2.25057755      -0.38905122       0.00000000
