10
Lattice="16.290000149 0.0 0.0 0.0 16.290000149 0.0 0.0 0.0 29.1751946751" Properties=species:S:1:pos:R:3:initial_magmoms:R:1 pbc="T T T"
Si      -1.33201702      -1.35450537      -1.38307928       0.00000000
Si       1.33130026      -1.37016006       1.36919189       0.00000000
Si       1.35179308       1.35147543      -1.37318889       0.00000000
Si      -1.37138995       1.33995840       1.36516571       0.00000000
Si       0.00247608       2.72306086       2.67425669       0.00000000
Si      -2.69464295       2.70478348      -0.02736633       0.00000000
Si       2.70565499      -0.00090572       2.69575881       0.00000000
Si      -2.69135237      -2.71760371      -0.03985332       0.00000000
Si       2.70227971      -2.70708037      -0.01082400       0.00000000
Si      -2.69184107      -0.00131786      -2.73564130       0.00000000
