10
Lattice="16.290000149 0.0 0.0 0.0 16.290000149 0.0 0.0 0.0 29.1751946751" Properties=species:S:1:pos:R:3:initial_magmoms:R:1 pbc="T T T"
Si       1.29430567       1.43664769       1.31238778       0.00000000
Si      -1.35353611       1.36632376      -1.33902473       0.00000000
Si      -1.30603447      -1.35093786       1.42129878       0.00000000
Si       1.42578226      -1.36170392      -1.29855874       0.00000000
Si       2.53218278       0.04554684       2.68508069       0.00000000
Si      -2.65090430      -2.69643485       0.03372653       0.00000000
Si       0.06418260      -2.70448211      -2.67621143       0.00000000
Si      -2.70914105      -0.00190593      -2.67641566       0.00000000
Si       0.02160054       2.70225038      -2.70106870       0.00000000
Si       2.76100842       0.00200367      -2.66777980       0.00000000
