10
Lattice="16.290000149 0.0 0.0 0.0 16.290000149 0.0 0.0 0.0 29.1751946751" Properties=species:S:1:pos:R:3:initial_magmoms:R:1 pbc="T T T"
Si       1.34761220       1.35200485      -1.35930150       0.00000000
Si      -1.34376211       1.36475992       1.35177429       0.00000000
Si       1.34332228      -1.35767377       1.36855003       0.00000000
Si      -1.37060803      -1.34796493      -1.35565460       0.00000000
Si      -2.68086161      -0.08320932       2.60773725       0.00000000
Si       2.67091331      -2.70702335      -0.02657860       0.00000000
Si       2.66254840       2.71780733       0.03366817       0.00000000
Si      -0.02076975       2.70992297      -2.69879303       0.00000000
Si       2.69128721       0.02173086       2.71892392       0.00000000
Si      -0.02661786      -2.67903713      -2.74226407       0.00000000
