10
Lattice="16.290000149 0.0 0.0 0.0 16.290000149 0.0 0.0 0.0 29.1751946751" Properties=species:S:1:pos:R:3:initial_magmoms:R:1 pbc="T T T"
Si       1.33089301       1.33318990      -1.39708337       0.00000000
Si      -1.19869966       1.47321874       1.42905939       0.00000000
Si       1.47145942      -1.20925558       1.45476273       0.00000000
Si      -1.56706543      -1.12256020      -1.46441972       0.00000000
H        1.82881316      -3.02549286      -0.79359447       0.00000000
Si      -2.52542243       0.09071901       2.80456478       0.00000000
Si      -0.17360253       2.64349235      -2.69076985       0.00000000
Si       2.92475550       2.46216836      -0.05776689       0.00000000
Si      -2.59784777       2.89711137       0.20425554       0.00000000
H        2.02603619       3.20577429       0.92111925       0.00000000
