10
Lattice="16.290000149 0.0 0.0 0.0 16.290000149 0.0 0.0 0.0 29.1751946751" Properties=species:S:1:pos:R:3:initial_magmoms:R:1 pbc="T T T"
Si       1.46646165      -1.20780577      -1.33835371       0.00000000
Si      -1.15059529      -1.64048447       1.18130363       0.00000000
Si      -1.76840984       1.15499359      -1.03213086       0.00000000
Si       1.45963614       1.38215764       1.34958616       0.00000000
H       -2.04931460      -0.89687854       2.16018976       0.00000000
Si      -3.38007729       1.32818887       0.64768932       0.00000000
Si       2.64497474       0.31820886      -2.65829786       0.00000000
Si       2.90144451      -2.39664998       0.10823997       0.00000000
Si      -0.93550213       3.08504747      -2.05177474       0.00000000
Si       0.25169467      -2.81180064       2.64146378       0.00000000
