10
Lattice="16.290000149 0.0 0.0 0.0 16.290000149 0.0 0.0 0.0 29.1751946751" Properties=species:S:1:pos:R:3:initial_magmoms:R:1 pbc="T T T"
Si       1.34082991       1.33099075      -1.37566878       0.00000000
Si      -1.43852104       1.37117818       1.23276868       0.00000000
Si       1.34099281      -1.34708527       1.38380866       0.00000000
Si      -1.38118024      -1.35096229      -1.34185473       0.00000000
Si      -0.16166196      -2.71023248       2.54244316       0.00000000
Si       2.70073541       2.63779085       0.01450007       0.00000000
Si      -0.01181025      -2.73830016      -2.65287128       0.00000000
Si      -2.81261514       0.05189994       2.59154502       0.00000000
Si       2.71494029      -0.02728575      -2.69689665       0.00000000
Si      -0.01474245       2.66711285      -2.75267962       0.00000000
