10
Lattice="16.290000149 0.0 0.0 0.0 16.290000149 0.0 0.0 0.0 29.1751946751" Properties=species:S:1:pos:R:3:initial_magmoms:R:1 pbc="T T T"
Si       1.35964486      -1.35754019      -1.33902473       0.00000000
Si       1.37358910       1.34698753       1.34293421       0.00000000
Si      -1.34407162      -1.35512602       1.36563251       0.00000000
Si      -1.33045318       1.37036368      -1.37167178       0.00000000
Si       0.00272043       2.70374906       2.67495690       0.00000000
Si       2.70775640       0.01661580      -2.67606556       0.00000000
Si       0.04530249      -2.70298343       2.69981416       0.00000000
Si       0.00353493      -2.72878680      -2.67711586       0.00000000
Si      -2.68949531       2.72578943      -0.01756347       0.00000000
Si      -2.70154991      -2.71725347       0.01546285       0.00000000
