10
Lattice="16.290000149 0.0 0.0 0.0 16.290000149 0.0 0.0 0.0 29.1751946751" Properties=species:S:1:pos:R:3:initial_magmoms:R:1 pbc="T T T"
Si      -1.37754757       1.36710568       1.31054974       0.00000000
Si      -1.37971414      -1.33517728      -1.34331349       0.00000000
Si       1.35558865       1.35606106      -1.35699665       0.00000000
Si       1.35325918      -1.35174421       1.37006714       0.00000000
Si      -0.00250866       2.70651836       2.64560665       0.00000000
Si      -0.00902466      -2.68112225      -2.68155049       0.00000000
Si      -2.72815148       0.01278765       2.67058062       0.00000000
Si       2.71329500      -2.70335810       0.01709666       0.00000000
Si      -0.00117288       2.72642474      -2.69491273       0.00000000
Si       2.72717408       0.01211976       2.70138963       0.00000000
