10
Lattice="16.290000149 0.0 0.0 0.0 16.290000149 0.0 0.0 0.0 29.1751946751" Properties=species:S:1:pos:R:3:initial_magmoms:R:1 pbc="T T T"
Si       1.36003582      -1.35161389      -1.35297048       0.00000000
Si       1.37391490       1.36386397       1.33132248       0.00000000
Si      -1.35325918       1.35174421      -1.37006714       0.00000000
Si      -1.35283564      -1.34715043       1.37534785       0.00000000
Si      -0.00019548       2.72214047       2.65255035       0.00000000
Si       2.68328882      -2.71643897       0.03956156       0.00000000
Si      -2.71368596      -2.69255783       0.00799400       0.00000000
Si      -2.72220563       0.04018743       2.68636440       0.00000000
Si       0.00003258      -2.69526197      -2.71577300       0.00000000
Si       2.71609688       0.02630835      -2.70847920       0.00000000
