10
Lattice="16.290000149 0.0 0.0 0.0 16.290000149 0.0 0.0 0.0 29.1751946751" Properties=species:S:1:pos:R:3:initial_magmoms:R:1 pbc="T T T"
Si      -1.32502861      -1.33610158      -1.33720129       0.00000000
Si       1.31685201      -1.43530866       1.27562704       0.00000000
Si      -1.44270757       1.33166190       1.28268743       0.00000000
Si       1.29928344       1.29020385      -1.47205487       0.00000000
Si       2.63112499      -0.05125974       2.63898388       0.00000000
Si      -0.07390773       2.68037617       2.62048681       0.00000000
Si      -2.74190025       0.00686624      -2.59180176       0.00000000
Si       2.66142113       2.68562155      -0.15401585       0.00000000
Si      -0.15078024       2.67488644      -2.69836124       0.00000000
Si      -0.08169435      -2.76999724       2.61007127       0.00000000
