10
Lattice="16.290000149 0.0 0.0 0.0 16.290000149 0.0 0.0 0.0 29.1751946751" Properties=species:S:1:pos:R:3:initial_magmoms:R:1 pbc="T T T"
Si      -1.37411038       1.35827650       1.32122787       0.00000000
Si      -1.37391490      -1.36386397      -1.33132248       0.00000000
Si       1.35365014       1.37559277      -1.34237988       0.00000000
Si       1.35985663      -1.32512635       1.39086906       0.00000000
Si      -0.01420488       2.66507660       2.71139672       0.00000000
Si       2.68323995      -2.69720048       0.01733007       0.00000000
Si      -0.01387908      -2.71547786      -2.68429296       0.00000000
Si       2.70102863       0.02757897      -2.70856672       0.00000000
Si      -2.71494029       0.02728575       2.69689665       0.00000000
Si      -2.72968274       2.69439860      -0.05578297       0.00000000
