10
Lattice="16.290000149 0.0 0.0 0.0 16.290000149 0.0 0.0 0.0 29.1751946751" Properties=species:S:1:pos:R:3:initial_magmoms:R:1 pbc="T T T"
Si       1.09175581      -0.72811414      -1.14594330       0.00000000
Si      -0.39204166      -1.93758149       0.20612275       0.00000000
H       -1.64164790      -1.15961995       0.54219182       0.00000000
Si      -0.29669792       0.43614846      -2.62527154       0.00000000
Si      -1.73812673       1.65354905      -1.20531482       0.00000000
Si       2.64117917       0.56593090       0.12058108       0.00000000
Si       1.24820497       2.04227732       1.33771185       0.00000000
Si       0.93530665      -1.89726374       2.21897778       0.00000000
Si       0.35144046       0.59427550       3.00069795       0.00000000
Si      -0.31632737       3.11709153      -0.04764309       0.00000000
