10
Lattice="16.290000149 0.0 0.0 0.0 16.290000149 0.0 0.0 0.0 29.1751946751" Properties=species:S:1:pos:R:3:initial_magmoms:R:1 pbc="T T T"
Si      -1.36213769      -1.39541770      -1.31803902       0.00000000
Si       1.29423074      -1.35299854       1.43159763       0.00000000
Si      -1.35030515       1.32654358       1.40682789       0.00000000
Si       1.37432867       1.36070371      -1.36176388       0.00000000
Si      -2.66142113      -2.68562155       0.15401585       0.00000000
Si      -2.81220137      -0.01073511      -2.54434539       0.00000000
Si       0.07024085      -2.70233998      -2.67019842       0.00000000
Si       2.69429109       2.70181055       0.03273457       0.00000000
Si       2.65029180      -2.74824846       0.14243330       0.00000000
Si      -2.68012205       2.73541682       0.09572381       0.00000000
