10
Lattice="16.290000149 0.0 0.0 0.0 16.290000149 0.0 0.0 0.0 29.1751946751" Properties=species:S:1:pos:R:3:initial_magmoms:R:1 pbc="T T T"
Si       1.34540414       1.46214154      -1.23312228       0.00000000
Si       1.38585221      -1.33986880       1.37139753       0.00000000
Si      -1.36013682       1.45847629       1.28690617       0.00000000
Si      -1.22014268      -1.48991599      -1.39795571       0.00000000
Si      -2.67948022      -2.66848121       0.01852917       0.00000000
Si      -2.66304361       0.10474470       2.72108580       0.00000000
Si      -0.01220121       2.70404228      -2.68983333       0.00000000
Si       2.79045748       0.26915967      -2.59072519       0.00000000
Si       0.03999032      -2.66872556       2.75277006       0.00000000
Si       0.03060565       2.74540260       2.72143590       0.00000000
