10
Lattice="16.290000149 0.0 0.0 0.0 16.290000149 0.0 0.0 0.0 29.1751946751" Properties=species:S:1:pos:R:3:initial_magmoms:R:1 pbc="T T T"
Si      -0.38547027      -0.64578448      -2.22338324       0.00000000
Si      -1.99197380      -0.59924395       1.17068386       0.00000000
Si       0.76216024       2.04314069       1.01270018       0.00000000
Si       1.48486609      -1.87069475       0.35179450       0.00000000
H       -2.25215768       2.07930449      -0.26701138       0.00000000
Si       1.78940765       0.70346737       2.62713875       0.00000000
H        2.73649197       1.95473486      -0.02056851       0.00000000
Si      -2.14944923      -2.13092750      -1.89017334       0.00000000
Si      -1.06712533      -1.64219492       3.00586196       0.00000000
H       -0.46460709       3.29597202      -1.35063646       0.00000000
