10
Lattice="16.290000149 0.0 0.0 0.0 16.290000149 0.0 0.0 0.0 29.1751946751" Properties=species:S:1:pos:R:3:initial_magmoms:R:1 pbc="T T T"
Si       1.29797092       1.35583300      -1.39571214       0.00000000
Si      -1.39297420       1.47634642       1.21713077       0.00000000
Si       1.59037642      -1.29940444       1.20274740       0.00000000
Si      -1.54942336      -1.29404503      -1.26652438       0.00000000
H       -2.64117917      -0.56593090      -0.12058108       0.00000000
Si      -1.70587253      -2.46319463       2.09839670       0.00000000
Si      -2.28973871       0.02834460       2.88011687       0.00000000
Si       3.45830187       0.16609284       1.35731758       0.00000000
Si       2.36112149      -0.10062333      -2.88122553       0.00000000
H        2.05886054       0.98520292       2.97636584       0.00000000
