10
Lattice="16.290000149 0.0 0.0 0.0 16.290000149 0.0 0.0 0.0 29.1751946751" Properties=species:S:1:pos:R:3:initial_magmoms:R:1 pbc="T T T"
Si      -0.45059769      -1.28725210       0.65722961       0.00000000
H        0.51043086      -1.54184851      -1.81084598       0.00000000
Si       1.55310490      -0.44926191      -2.03914188       0.00000000
Si       2.71692116      -0.59320036      -0.01826367       0.00000000
Si      -1.26412030      -0.30633345       2.60268994       0.00000000
Si      -2.33603489      -1.99283717      -0.60923642       0.00000000
Si       1.57270177      -2.66033621       0.58195761       0.00000000
Si      -2.76861585       1.00396900       1.30900346       0.00000000
Si      -1.84985984       2.83633338       0.13680249       0.00000000
Si       0.29520738       1.19855305      -3.19083269       0.00000000
