10
Lattice="16.290000149 0.0 0.0 0.0 16.290000149 0.0 0.0 0.0 29.1751946751" Properties=species:S:1:pos:R:3:initial_magmoms:R:1 pbc="T T T"
Si      -1.34617629       1.36068905      -1.35518779       0.00000000
Si       1.35747829       1.36212746       1.35016966       0.00000000
Si      -1.37567748      -1.35016408       1.34836080       0.00000000
Si       1.31773069      -1.37080351      -1.38847669       0.00000000
Si       0.01360215      -2.69682581       2.68023761       0.00000000
Si      -2.66044927      -0.02335986      -2.71854464       0.00000000
Si       2.70508484      -0.01153332      -2.69257872       0.00000000
Si      -0.02647125       2.71684622       2.68414709       0.00000000
Si      -2.69061367      -2.71596656      -0.04460887       0.00000000
Si       2.70005123      -2.71627607      -0.05204855       0.00000000
