10
Lattice="10.86 0.0 0.0 0.0 10.86 0.0 0.0 0.0 10.86" Properties=species:S:1:pos:R:3:initial_magmoms:R:1 pbc="T T T"
Si       0.51765276      -0.67536168      -2.07263100       0.00000000
Si      -2.19734724      -0.67536168       0.64236900       0.00000000
Si       1.74599478       0.47882826       1.84875210       0.00000000
Si       1.87515276      -2.03286168      -0.71513100       0.00000000
Si      -0.83984724      -2.03286168       1.99986900       0.00000000
Si       3.23265276      -0.67536168       0.64236900       0.00000000
Si       0.51765276      -0.67536168       3.35736900       0.00000000
Si       0.51765276      -3.39036168       0.64236900       0.00000000
Si      -2.19734724       2.03963832      -2.07263100       0.00000000
Si      -0.96274986       3.45522846       1.79829654       0.00000000
