10
Lattice="10.86 0.0 0.0 0.0 10.86 0.0 0.0 0.0 10.86" Properties=species:S:1:pos:R:3:initial_magmoms:R:1 pbc="T T T"
Si       1.48665798      -1.15418994      -1.20638310       0.00000000
Si      -1.22834202      -1.15418994       1.50861690       0.00000000
Si      -1.74599478      -0.47882826      -1.84875210       0.00000000
Si       1.48665798       1.56081006       1.50861690       0.00000000
Si       0.12915798      -2.51168994      -2.56388310       0.00000000
Si      -2.58584202      -2.51168994       0.15111690       0.00000000
Si       2.84415798      -2.51168994       0.15111690       0.00000000
Si       0.12915798      -2.51168994       2.86611690       0.00000000
Si      -2.58584202       0.20331006       2.86611690       0.00000000
Si       2.66359962       0.53186850      -2.87528274       0.00000000
