10
Lattice="10.86 0.0 0.0 0.0 10.86 0.0 0.0 0.0 10.86" Properties=species:S:1:pos:R:3:initial_magmoms:R:1 pbc="T T T"
Si       1.13521752      -1.32991560      -1.28700774       0.00000000
Si       1.13521752       1.38508440       1.42799226       0.00000000
Si      -0.82390476      -1.76104674       1.29472920       0.00000000
Si      -1.57978248       1.38508440      -1.28700774       0.00000000
Si      -2.53829694      -0.47792688       2.32825368       0.00000000
Si       2.49271752       0.02758440      -2.64450774       0.00000000
Si       2.34968046       0.22525812       2.79274674       0.00000000
Si       2.49271752       2.74258440       0.07049226       0.00000000
Si      -0.22228248      -2.68741560      -2.64450774       0.00000000
Si      -0.22228248       2.74258440      -2.64450774       0.00000000
