10
Lattice="10.86 0.0 0.0 0.0 10.86 0.0 0.0 0.0 10.86" Properties=species:S:1:pos:R:3:initial_magmoms:R:1 pbc="T T T"
Si      -1.23459738       1.29940986      -1.15592754       0.00000000
Si      -1.23459738      -1.41559014       1.55907246       0.00000000
Si       1.48040262       1.29940986       1.55907246       0.00000000
Si      -2.59209738      -0.05809014      -2.51342754       0.00000000
Si       0.52188816       2.15139858      -2.97066612       0.00000000
Si      -2.59209738       2.65690986       0.20157246       0.00000000
Si      -2.59209738      -2.77309014       0.20157246       0.00000000
Si       2.76897420       2.61741204       0.15228978       0.00000000
Si      -2.59209738      -0.05809014       2.91657246       0.00000000
Si       0.12290262       2.65690986       2.91657246       0.00000000
