10
Lattice="16.28999089631971 0.0 0.0 0.0 16.28999089631971 0.0 0.0 0.0 34.474598006748145" Properties=species:S:1:pos:R:3:initial_magmoms:R:1 pbc="T T T"
Si      -1.35744570      -1.35698070      -1.35612802       0.00000000
Si       1.35415512      -1.35569031       1.36171291       0.00000000
Si       1.35734796       1.35803540      -1.35623144       0.00000000
Si      -1.35845568       1.35858926       1.35978233       0.00000000
Si      -2.71432940      -0.00002769      -2.71370397       0.00000000
Si       0.00063531       2.71487837      -2.71373845       0.00000000
Si      -2.71411925       2.71468289       0.00031027       0.00000000
Si       0.00073305      -2.71518855      -2.71377292       0.00000000
Si       2.71621089      -2.71331520       0.00217190       0.00000000
Si       2.71557558       0.00000489      -2.71404872       0.00000000
