10
Lattice="16.28999089631971 0.0 0.0 0.0 16.28999089631971 0.0 0.0 0.0 34.474598006748145" Properties=species:S:1:pos:R:3:initial_magmoms:R:1 pbc="T T T"
Si      -2.28319730       0.34795440      -0.62288738       0.00000000
Si       0.76714497       1.94733333       1.17158539       0.00000000
Si       1.53577233       0.48635424      -1.82125956       0.00000000
Si       0.05510907      -2.15026371       1.14934927       0.00000000
Si       0.84673791      -3.39138252      -0.70400616       0.00000000
Si      -0.47463684      -2.61747720      -2.57008272       0.00000000
Si       0.36030222       3.70700846      -0.34612516       0.00000000
Si      -2.17174112       1.01079354      -2.92527470       0.00000000
Si       1.11436632       2.77548110      -2.36440715       0.00000000
Si      -2.24825525      -2.88292275       1.13835186       0.00000000
