10
Lattice="16.28999089631971 0.0 0.0 0.0 16.28999089631971 0.0 0.0 0.0 34.474598006748145" Properties=species:S:1:pos:R:3:initial_magmoms:R:1 pbc="T T T"
Si      -1.24297587       1.46689821      -1.32154998       0.00000000
Si      -1.34131860      -1.34746807       1.36214729       0.00000000
Si       1.17871182      -1.40824444      -1.49143055       0.00000000
Si       1.37350764       1.36904418       1.35532131       0.00000000
Si       2.21348520       0.40905819      -2.77354643       0.00000000
Si       0.47019456       2.36459124      -2.67318837       0.00000000
Si      -2.67926517      -2.70031421      -0.02091920       0.00000000
Si       2.72360655      -2.68171861      -0.02614210       0.00000000
Si      -2.69915526       0.01001835       2.71641368       0.00000000
Si       0.01453068      -2.70060688       2.71599998       0.00000000
