10
Lattice="16.28999089631971 0.0 0.0 0.0 16.28999089631971 0.0 0.0 0.0 34.474598006748145" Properties=species:S:1:pos:R:3:initial_magmoms:R:1 pbc="T T T"
Si      -1.35671265       1.35684297      -1.35750700       0.00000000
Si      -1.35734796      -1.35803540       1.35623144       0.00000000
Si       1.35803214       1.35698958       1.35702436       0.00000000
Si       1.35822762      -1.35803051      -1.35781728       0.00000000
Si      -2.71306692      -0.00215028      -2.71491058       0.00000000
Si       0.00061902      -2.71277551      -2.71532428       0.00000000
Si      -2.71412577       2.71428867       0.00003447       0.00000000
Si      -2.71479366      -2.71501610       0.00010342       0.00000000
Si      -0.00014661       2.71443528      -2.71546218       0.00000000
Si      -0.00379557       2.71539639       2.71470374       0.00000000
