10
Lattice="16.28999089631971 0.0 0.0 0.0 16.28999089631971 0.0 0.0 0.0 34.474598006748145" Properties=species:S:1:pos:R:3:initial_magmoms:R:1 pbc="T T T"
Si       1.83578526      -1.60969635      -0.22394711       0.00000000
Si       0.98083719       1.74053763      -1.46217194       0.00000000
Si      -1.80518354      -1.14269463      -1.33758068       0.00000000
Si       1.09237482       1.75932000       2.23078353       0.00000000
Si      -1.55640687      -1.37575566       2.55115615       0.00000000
Si      -2.17143161      -2.87393067       0.48030037       0.00000000
Si       2.29130253       0.39328947      -2.92279253       0.00000000
Si       2.29680855      -2.15617698       2.02745224       0.00000000
Si      -0.41419117      -2.34174614      -2.89945321       0.00000000
Si       2.75506254       2.86834320      -0.16399575       0.00000000
