10
Lattice="16.28999089631971 0.0 0.0 0.0 16.28999089631971 0.0 0.0 0.0 34.474598006748145" Properties=species:S:1:pos:R:3:initial_magmoms:R:1 pbc="T T T"
Si       1.42473969      -1.16690157       1.39191267       0.00000000
Si       1.37103156       1.33475373      -1.34671645       0.00000000
Si      -1.34097651      -1.38008880      -1.34540641       0.00000000
Si      -1.31046534       1.34724816       1.46062058       0.00000000
Si      -0.45551727      -2.00298582       2.69884541       0.00000000
Si       2.27996469       0.72560547       2.81816206       0.00000000
Si      -2.29130253      -0.39328947       2.92279253       0.00000000
Si       0.46376001       2.47505373       2.75879677       0.00000000
Si       0.01979235       2.69138493      -2.70460267       0.00000000
Si      -2.70940167       2.68646535       0.03488831       0.00000000
