10
Lattice="16.28999089631971 0.0 0.0 0.0 16.28999089631971 0.0 0.0 0.0 34.474598006748145" Properties=species:S:1:pos:R:3:initial_magmoms:R:1 pbc="T T T"
Si      -1.44275643      -0.16145019      -1.82256959       0.00000000
Si       2.03255217       0.34368642      -1.17241278       0.00000000
Si       0.06960717      -1.91221794       1.40208268       0.00000000
Si      -0.51129423       2.05687314       1.08577807       0.00000000
Si       3.42036243       1.33788141       0.41476412       0.00000000
Si       0.22102272      -3.75906411      -0.02909658       0.00000000
Si       2.32821567      -2.10502638       2.08305980       0.00000000
Si      -1.32937803       1.90933461      -2.98481236       0.00000000
Si      -3.67880328      -0.40430151      -1.07191927       0.00000000
Si      -2.91993363       2.26678608       1.27369921       0.00000000
