10
Lattice="16.28999089631971 0.0 0.0 0.0 16.28999089631971 0.0 0.0 0.0 34.474598006748145" Properties=species:S:1:pos:R:3:initial_magmoms:R:1 pbc="T T T"
Si       1.88048013      -1.13173635       0.89230652       0.00000000
Si      -1.79264512      -0.51495948       1.65292000       0.00000000
Si      -0.61502473      -1.49817501      -2.07085578       0.00000000
Si       0.30040063       2.26439145       1.42714573       0.00000000
Si       1.55640687       1.37575566      -2.55115615       0.00000000
Si       2.50269297       1.96797861       2.25353678       0.00000000
Si      -0.24877666       0.23306103      -3.88873683       0.00000000
Si       3.85321542      -0.78042132      -0.52370391       0.00000000
Si      -3.20490667      -2.20695698       0.79029613       0.00000000
Si      -3.16598986       1.37717289       2.11801706       0.00000000
