10
Lattice="16.28999089631971 0.0 0.0 0.0 16.28999089631971 0.0 0.0 0.0 34.474598006748145" Properties=species:S:1:pos:R:3:initial_magmoms:R:1 pbc="T T T"
Si      -1.33465599       1.36814823       1.29434951       0.00000000
Si       1.33939638       1.36868580      -1.36591881       0.00000000
Si      -1.37552760      -1.34684091      -1.36881468       0.00000000
Si       1.39546656      -1.07642691       1.65898753       0.00000000
Si       2.68271865      -2.67375915       0.01385880       0.00000000
Si      -2.72363913      -2.69560404       0.01330720       0.00000000
Si      -0.09425394       2.54687634       2.86466832       0.00000000
Si       2.69606016       0.01762578      -2.72670090       0.00000000
Si      -0.01873350      -2.69803125      -2.72756277       0.00000000
Si       2.69830818       2.74286133       0.01820260       0.00000000
