10
Lattice="16.28999089631971 0.0 0.0 0.0 16.28999089631971 0.0 0.0 0.0 34.474598006748145" Properties=species:S:1:pos:R:3:initial_magmoms:R:1 pbc="T T T"
Si      -1.29490839      -1.37055915      -1.43155848       0.00000000
Si       1.34040636       1.47865959      -1.27397501       0.00000000
Si       1.03557159      -1.29463146       1.73314243       0.00000000
Si      -1.83444948       1.19905803       1.08529543       0.00000000
Si      -0.74253078      -1.00745505       3.24257908       0.00000000
Si       1.59387876       3.40153119       0.45234145       0.00000000
Si      -2.72852613      -1.81286523       1.92185649       0.00000000
Si      -2.34455454      -3.07524249      -0.19633295       0.00000000
Si      -0.05506020       2.55508650      -2.93296254       0.00000000
Si       2.62765845      -0.11867265      -2.91910374       0.00000000
