10
Lattice="16.28999089631971 0.0 0.0 0.0 16.28999089631971 0.0 0.0 0.0 34.474598006748145" Properties=species:S:1:pos:R:3:initial_magmoms:R:1 pbc="T T T"
Si       0.37870992       2.03310603       1.11173746       0.00000000
Si      -1.87219341      -0.02350647      -1.54139461       0.00000000
Si       1.48740732       0.36595485      -1.89313913       0.00000000
Si      -0.80355312      -1.92717216       1.35681751       0.00000000
Si       2.45332287      -0.38033892       0.94184654       0.00000000
Si       1.86867477      -1.88651232      -2.58214883       0.00000000
Si       2.10380463       3.06802602      -0.12796978       0.00000000
Si      -3.74381667      -0.20849571      -0.20319339       0.00000000
Si      -1.62163692      -2.07471069      -2.71377292       0.00000000
Si       0.44593875       2.12156073      -3.17059608       0.00000000
