10
Lattice="16.28999089631971 0.0 0.0 0.0 16.28999089631971 0.0 0.0 0.0 34.474598006748145" Properties=species:S:1:pos:R:3:initial_magmoms:R:1 pbc="T T T"
Si       2.15259481       0.74748294      -0.52946117       0.00000000
Si      -1.15436383       2.06200449       0.05071216       0.00000000
Si       0.09403077      -0.61144515       2.29835378       0.00000000
Si      -1.62428146      -1.33679975      -1.11835658       0.00000000
Si      -3.35286223      -0.64607769       0.42252091       0.00000000
Si      -1.02601492       1.27448073       3.16394247       0.00000000
Si       3.24883036      -1.28369761      -0.94467346       0.00000000
Si      -2.92700905       1.49152869       1.72283452       0.00000000
Si       1.54362574      -2.69828279      -2.06196133       0.00000000
Si       1.92386692       1.68217056      -2.73614695       0.00000000
