10
Lattice="16.28999089631971 0.0 0.0 0.0 16.28999089631971 0.0 0.0 0.0 34.474598006748145" Properties=species:S:1:pos:R:3:initial_magmoms:R:1 pbc="T T T"
Si       1.94773014      -0.42847587      -1.32399768       0.00000000
Si      -1.12254390      -1.60533063       1.39054890       0.00000000
Si       1.51852122       1.18027566       1.49502767       0.00000000
Si      -1.51741350       0.04339656      -1.93588766       0.00000000
Si       0.50280714      -0.38406933      -3.21458569       0.00000000
Si       2.78829414      -2.60763804      -0.05002267       0.00000000
Si      -2.51968833      -0.19846107       2.86902733       0.00000000
Si      -2.18237130      -3.12984657      -0.27927887       0.00000000
Si       0.19057671       2.51750547       2.89767574       0.00000000
Si       2.98107000       1.73589498      -1.79385224       0.00000000
