10
Lattice="16.28999089631971 0.0 0.0 0.0 16.28999089631971 0.0 0.0 0.0 34.474598006748145" Properties=species:S:1:pos:R:3:initial_magmoms:R:1 pbc="T T T"
Si       1.35749457       1.35640933      -1.35909284       0.00000000
Si      -1.35796698      -1.35957969      -1.35850677       0.00000000
Si      -1.36205577       1.35762489       1.35954101       0.00000000
Si       1.35896067      -1.36392912       1.35926521       0.00000000
Si       2.71562445       2.71298451      -0.00348194       0.00000000
Si      -2.71409319      -2.71454931      -0.00244770       0.00000000
Si      -2.71621089       2.71331520      -0.00217190       0.00000000
Si      -0.00063531       2.71332009      -2.71622062       0.00000000
Si       2.71409319      -0.00164529      -2.71604825       0.00000000
Si       2.71562445      -2.71498914      -0.00151688       0.00000000
