10
Lattice="16.28999089631971 0.0 0.0 0.0 16.28999089631971 0.0 0.0 0.0 34.474598006748145" Properties=species:S:1:pos:R:3:initial_magmoms:R:1 pbc="T T T"
Si       0.37256859      -1.10962593       1.96950041       0.00000000
Si      -0.62348346       2.28228506       0.49057380       0.00000000
Si      -1.98094545      -1.59306426      -0.29527510       0.00000000
Si       2.03001093      -0.80598033      -1.57283546       0.00000000
Si      -1.08450675       2.82876569      -1.76082555       0.00000000
Si       1.17299403      -3.21921351       1.28666167       0.00000000
Si      -1.94636178       0.86046242      -2.98763928       0.00000000
Si      -0.71993655      -3.15048600      -1.84597786       0.00000000
Si      -2.59621875       1.93097003       1.90658423       0.00000000
Si       0.78960888      -1.98470844      -3.14315428       0.00000000
