10
Lattice="16.28999089631971 0.0 0.0 0.0 16.28999089631971 0.0 0.0 0.0 34.474598006748145" Properties=species:S:1:pos:R:3:initial_magmoms:R:1 pbc="T T T"
Si      -1.42017849      -1.00051551      -1.54922035       0.00000000
Si       2.12680611      -0.50889960      -0.86796744       0.00000000
Si      -0.01808190      -1.08735750       2.10122792       0.00000000
Si      -0.44981577       2.35073889       0.26021441       0.00000000
Si      -3.33541008      -1.34498385      -0.28965573       0.00000000
Si      -2.44178955       2.17392723       1.54056722       0.00000000
Si       0.77748912       0.60240420       3.49155476       0.00000000
Si       1.64439405      -2.69847108       2.04482745       0.00000000
Si       3.17931930       1.66476048      -1.33723593       0.00000000
Si       1.71162288      -2.61001638      -2.23750608       0.00000000
