10
Lattice="16.28999089631971 0.0 0.0 0.0 16.28999089631971 0.0 0.0 0.0 34.474598006748145" Properties=species:S:1:pos:R:3:initial_magmoms:R:1 pbc="T T T"
Si      -0.05911641       1.34167698      -1.93902485       0.00000000
Si       1.82091249       0.19683207       1.51281516       0.00000000
Si       1.18436445      -1.79106921      -1.07588386       0.00000000
Si      -1.82105910       0.23902317       1.55177147       0.00000000
Si       2.75916762       1.97243297       0.19429894       0.00000000
Si      -0.85468743      -0.34808472      -3.32935169       0.00000000
Si      -2.61314406      -1.34193762      -2.03200289       0.00000000
Si      -0.89425584       1.90443362       2.95606053       0.00000000
Si      -2.06439912      -2.98427913      -0.30768596       0.00000000
Si       0.19919412      -3.68207757      -0.09556364       0.00000000
