10
Lattice="16.28999089631971 0.0 0.0 0.0 16.28999089631971 0.0 0.0 0.0 34.474598006748145" Properties=species:S:1:pos:R:3:initial_magmoms:R:1 pbc="T T T"
Si       1.34786718      -1.34965812       1.35929968       0.00000000
Si       1.35518139       1.35771449      -1.35495588       0.00000000
Si      -1.35812988      -1.35657519      -1.35561090       0.00000000
Si      -1.35573525       1.35683483       1.36126474       0.00000000
Si       2.71357191       0.00055060      -2.71246289       0.00000000
Si       2.71228500       2.71434568       0.00258560       0.00000000
Si      -0.00153126      -2.71462980      -2.71256631       0.00000000
Si      -0.00105885       2.71568147      -2.71218709       0.00000000
Si      -2.71562445      -2.71298451       0.00348194       0.00000000
Si      -2.71625976       0.00033557      -2.71273868       0.00000000
