10
Lattice="16.28999089631971 0.0 0.0 0.0 16.28999089631971 0.0 0.0 0.0 34.474598006748145" Properties=species:S:1:pos:R:3:initial_magmoms:R:1 pbc="T T T"
Si       0.75406410      -0.93152736      -2.01828199       0.00000000
Si       0.40684275      -1.75967512       1.51771055       0.00000000
Si       1.40238981       1.90363311      -0.23777144       0.00000000
Si      -2.21588702       0.90461628       0.00141346       0.00000000
Si      -1.30876792      -0.74613087      -3.22313539       0.00000000
Si      -2.42881361       1.13979501      -2.35754670       0.00000000
Si       0.52284384       3.31683948       1.40446143       0.00000000
Si      -1.82924971       3.00555387       0.99514430       0.00000000
Si       1.17547011      -3.22065422      -1.47513440       0.00000000
Si      -0.36030222      -3.70700846       0.34612516       0.00000000
