10
Lattice="16.28999089631971 0.0 0.0 0.0 16.28999089631971 0.0 0.0 0.0 34.474598006748145" Properties=species:S:1:pos:R:3:initial_magmoms:R:1 pbc="T T T"
Si      -1.35553977      -1.32488199       1.36616013       0.00000000
Si      -1.35286821       1.35980775      -1.36009260       0.00000000
Si       1.36047564      -1.35713619      -1.36029945       0.00000000
Si       1.34858394       1.38407985       1.38132896       0.00000000
Si       0.03917745      -2.61482193       2.74076655       0.00000000
Si      -2.70966231       2.71099809      -0.00134451       0.00000000
Si      -2.71207323       0.00146610      -2.71604825       0.00000000
Si       2.71345788       2.71541268       0.00479197       0.00000000
Si      -2.71635750      -2.71278999      -0.00141346       0.00000000
Si       0.00307881      -2.71363707      -2.71635852       0.00000000
