10
Lattice="16.28999089631971 0.0 0.0 0.0 16.28999089631971 0.0 0.0 0.0 34.474598006748145" Properties=species:S:1:pos:R:3:initial_magmoms:R:1 pbc="T T T"
Si      -0.68212746       1.89789903       1.34361373       0.00000000
Si      -0.83232126      -2.10624813       0.90147677       0.00000000
Si       2.22957972      -0.25303257      -1.15610629       0.00000000
Si      -1.46623032       0.85178781      -1.87135117       0.00000000
Si       3.16645020      -1.47116619       0.92547110       0.00000000
Si      -1.96977051      -2.88556173      -1.21857430       0.00000000
Si      -0.55374597       3.65174559      -0.33716176       0.00000000
Si      -3.54074553      -0.21740634      -1.16210487       0.00000000
Si      -2.71467963       1.55421261       2.51602652       0.00000000
Si       1.48885713      -0.47638476      -3.71460554       0.00000000
