10
Lattice="16.28999089631971 0.0 0.0 0.0 16.28999089631971 0.0 0.0 0.0 34.474598006748145" Properties=species:S:1:pos:R:3:initial_magmoms:R:1 pbc="T T T"
Si       0.30007809      -0.65445075       2.19492993       0.00000000
Si       0.19016946      -2.02388589      -1.17079248       0.00000000
Si      -2.25860850       0.19280844      -0.68097711       0.00000000
Si       1.26364788       2.04403662       0.23773696       0.00000000
Si      -2.10719295      -1.65403773      -2.11215638       0.00000000
Si      -0.70972272       1.17722943       3.17214743       0.00000000
Si      -0.11370420       3.07809324       1.89720714       0.00000000
Si      -2.32821567       2.10502638      -2.08305980       0.00000000
Si       2.57427612      -1.17446013       2.62093278       0.00000000
Si       2.33131077      -2.28708342      -2.12522226       0.00000000
