10
Lattice="16.28999089631971 0.0 0.0 0.0 16.28999089631971 0.0 0.0 0.0 34.474598006748145" Properties=species:S:1:pos:R:3:initial_magmoms:R:1 pbc="T T T"
Si       1.35817875      -1.35527913       1.35992023       0.00000000
Si      -1.35575154       1.36169436       1.35919626       0.00000000
Si       1.37327958       1.36392912      -1.35297704       0.00000000
Si      -1.36523232      -1.34721558      -1.38349742       0.00000000
Si       0.07855038      -2.57077377      -2.83675422       0.00000000
Si      -2.71634121      -2.70899442      -0.00020685       0.00000000
Si       0.00109143      -2.71218726       2.71673774       0.00000000
Si      -2.71430496       0.00286704       2.71673774       0.00000000
Si       2.71529865       2.71661392       0.00361983       0.00000000
Si       2.71854036      -2.71406061       0.00058607       0.00000000
