10
Lattice="16.28999089631971 0.0 0.0 0.0 16.28999089631971 0.0 0.0 0.0 34.474598006748145" Properties=species:S:1:pos:R:3:initial_magmoms:R:1 pbc="T T T"
Si      -1.73786348      -1.16186796      -1.03756980       0.00000000
Si      -1.43972390       1.24150977       1.53880902       0.00000000
Si       1.25386736      -1.45267704       1.53909516       0.00000000
Si       1.59626687       1.01602359      -1.62412822       0.00000000
Si       2.65609427       2.54053953       0.04569955       0.00000000
Si      -2.93693780       2.38744611       0.10334801       0.00000000
Si      -0.85024840      -2.26272987      -2.92499343       0.00000000
Si       2.71915286      -2.73443940       0.23711642       0.00000000
Si      -3.63980243       0.48086451      -1.32961156       0.00000000
Si      -0.09876627       2.60006319       2.91581486       0.00000000
