10
Lattice="16.28999089631971 0.0 0.0 0.0 16.28999089631971 0.0 0.0 0.0 34.474598006748145" Properties=species:S:1:pos:R:3:initial_magmoms:R:1 pbc="T T T"
Si       1.35666378      -1.35106002      -1.36078209       0.00000000
Si      -1.33939638      -1.36868580       1.36591881       0.00000000
Si      -1.35896067       1.36392912      -1.35926521       0.00000000
Si       1.35891180       1.37417553       1.38412141       0.00000000
Si      -2.67405237      -0.00053757       2.66026832       0.00000000
Si       2.70819621      -2.71111212       0.00324061       0.00000000
Si      -0.00218286      -2.71042794      -2.71701354       0.00000000
Si      -2.71492398      -2.71552671      -0.00289587       0.00000000
Si       2.71274112       0.00487071      -2.71794435       0.00000000
Si       2.70453096       2.72725551      -0.00344746       0.00000000
