10
Lattice="16.28999089631971 0.0 0.0 0.0 16.28999089631971 0.0 0.0 0.0 34.474598006748145" Properties=species:S:1:pos:R:3:initial_magmoms:R:1 pbc="T T T"
Si       0.26883387       0.21271482      -2.33341447       0.00000000
Si      -2.33137593      -0.50008671       0.00544699       0.00000000
Si       1.04146857      -1.75560588       1.27745694       0.00000000
Si       0.41518323       2.10111678       1.36953865       0.00000000
Si       2.64551229       0.96892920      -2.13511647       0.00000000
Si      -2.31813216      -2.14506720       1.62920146       0.00000000
Si      -3.13180137       1.60950087       0.68828573       0.00000000
Si       1.65786588       0.94646529       3.04262630       0.00000000
Si       3.02023116      -0.60821973       1.87324728       0.00000000
Si      -1.47435903       1.91314647      -2.85405014       0.00000000
