10
Lattice="16.28999089631971 0.0 0.0 0.0 16.28999089631971 0.0 0.0 0.0 34.474598006748145" Properties=species:S:1:pos:R:3:initial_magmoms:R:1 pbc="T T T"
Si      -1.35760860      -1.35688695       1.35664514       0.00000000
Si       1.35689184      -1.35832047      -1.35657619       0.00000000
Si       1.35757602       1.35816246       1.35664514       0.00000000
Si      -1.35607734       1.36163223      -1.35888599       0.00000000
Si       0.01487277      -2.71100528      -2.71317306       0.00000000
Si      -2.71415835      -2.71324003      -0.00099976       0.00000000
Si       2.71344471      -2.71432512      -0.00082739       0.00000000
Si       0.00035838      -2.71464768       2.71408319       0.00000000
Si       2.71522150      -0.00001629       2.71429004       0.00000000
Si       2.71470244       2.71492398      -0.00048264       0.00000000
