10
Lattice="16.28999089631971 0.0 0.0 0.0 16.28999089631971 0.0 0.0 0.0 34.474598006748145" Properties=species:S:1:pos:R:3:initial_magmoms:R:1 pbc="T T T"
Si      -1.34644995      -1.36095361      -1.39691149       0.00000000
Si       1.38052863       1.34689141      -1.38843074       0.00000000
Si       0.94384260      -1.76069392       1.30820830       0.00000000
Si      -1.54559520       1.42751062       1.74989710       0.00000000
Si      -2.70370017       2.69197300      -0.01051476       0.00000000
Si      -2.69206911      -2.71403359      -0.00934262       0.00000000
Si       2.72388348       2.69967817       0.01227296       0.00000000
Si      -2.69431713      -0.01129549      -2.75621118       0.00000000
Si       0.01796787       2.70305020      -2.75362558       0.00000000
Si       2.72803743      -2.73270193      -0.01792680       0.00000000
