10
Lattice="16.28999089631971 0.0 0.0 0.0 16.28999089631971 0.0 0.0 0.0 34.474598006748145" Properties=species:S:1:pos:R:3:initial_magmoms:R:1 pbc="T T T"
Si       1.12004568      -1.88592588      -0.86558869       0.00000000
Si       0.97430557       2.14656588      -0.27703802       0.00000000
Si       0.21292659      -0.23517873       2.35896016       0.00000000
Si      -1.90099413       0.21704796      -1.44110795       0.00000000
Si      -0.12834891       0.78752376      -3.11323031       0.00000000
Si      -0.24516450       3.09606111       1.52815636       0.00000000
Si       1.02601492      -1.27448073      -3.16394247       0.00000000
Si       2.42881361      -1.13979501       2.35754670       0.00000000
Si      -3.69743904      -0.43722360       0.25893885       0.00000000
Si       3.18287771      -2.07132237       0.33926471       0.00000000
