10
Lattice="16.28999089631971 0.0 0.0 0.0 16.28999089631971 0.0 0.0 0.0 34.474598006748145" Properties=species:S:1:pos:R:3:initial_magmoms:R:1 pbc="T T T"
Si      -0.26144310      -2.01375351       1.12432069       0.00000000
Si       1.82514137       1.11868317       0.89978751       0.00000000
Si      -1.82468918       1.41633405       0.39404488       0.00000000
Si       2.08693796      -1.14306930      -0.62319766       0.00000000
Si       1.69237787       2.95052625      -0.92478161       0.00000000
Si       1.94084924      -2.31016635       1.95071174       0.00000000
Si      -2.05913486      -1.48830327       2.64199677       0.00000000
Si      -2.43225731       0.86641623       2.60593632       0.00000000
Si      -3.57436550       0.40729887      -0.76968031       0.00000000
Si       3.36565409       1.22833116      -0.89978751       0.00000000
