10
Lattice="16.28999089631971 0.0 0.0 0.0 16.28999089631971 0.0 0.0 0.0 34.474598006748145" Properties=species:S:1:pos:R:3:initial_magmoms:R:1 pbc="T T T"
Si      -0.68633028      -0.46268487       2.22854268       0.00000000
Si      -1.53990999       1.93140756      -0.10445809       0.00000000
Si       2.01073986       0.64917279      -1.33902861       0.00000000
Si      -0.76460373      -2.00358855      -1.29765907       0.00000000
Si      -1.96628445      -0.67149009      -2.77096631       0.00000000
Si       0.75994479       2.04506289      -2.76676041       0.00000000
Si       1.06334604       0.54635031       3.39226787       0.00000000
Si      -3.25540989       0.78962517      -1.36553959       0.00000000
Si      -2.51739144      -2.77617438       0.17333838       0.00000000
Si      -0.42635817       3.51981288      -1.35761043       0.00000000
