10
Lattice="16.28999089631971 0.0 0.0 0.0 16.28999089631971 0.0 0.0 0.0 34.474598006748145" Properties=species:S:1:pos:R:3:initial_magmoms:R:1 pbc="T T T"
Si      -1.28611179      -1.93995981       0.28893177       0.00000000
Si      -1.04919003       2.01254805       0.70569542       0.00000000
Si       1.36986912       0.09757710      -1.99594244       0.00000000
Si       1.61374183      -1.01362896       1.52198540       0.00000000
Si      -0.89090010      -2.83234230      -1.80450489       0.00000000
Si       0.72612675       0.08723295       3.40940903       0.00000000
Si       0.23297958      -3.11425704       1.72059367       0.00000000
Si      -2.83802751       1.98928593      -0.90461396       0.00000000
Si       0.98323182      -2.00336049      -2.98967328       0.00000000
Si      -1.17581220       1.72996542       3.11736727       0.00000000
