10
Lattice="16.28999089631971 0.0 0.0 0.0 16.28999089631971 0.0 0.0 0.0 34.474598006748145" Properties=species:S:1:pos:R:3:initial_magmoms:R:1 pbc="T T T"
Si       1.35667095       1.34034120      -1.35933416       0.00000000
Si       1.25079507      -1.39589010       1.42773180       0.00000000
Si      -1.18630296       1.47474999       1.40914998       0.00000000
Si      -1.35459495      -1.37808513      -1.35905836       0.00000000
Si      -2.29985478      -0.11365533       2.66230232       0.00000000
Si      -0.75994479      -2.04506289       2.76676041       0.00000000
Si       0.71623872       2.26219230       2.71663432       0.00000000
Si      -2.69974170       2.71112841       0.01865077       0.00000000
Si       0.00102627       2.69752626      -2.71739276       0.00000000
Si       2.72036225       2.69780319       0.00337851       0.00000000
