10
Lattice="16.28999089631971 0.0 0.0 0.0 16.28999089631971 0.0 0.0 0.0 34.474598006748145" Properties=species:S:1:pos:R:3:initial_magmoms:R:1 pbc="T T T"
Si      -1.61841150       1.45117836       0.92160994       0.00000000
Si       2.28284802       0.51557850       0.36260402       0.00000000
Si      -0.10161702      -0.56154888      -2.31159204       0.00000000
Si      -0.69364449      -1.98343782       1.25856485       0.00000000
Si      -3.02532993       1.30357467      -1.01679436       0.00000000
Si       0.29729250      -2.83706640      -2.10543383       0.00000000
Si       1.09519299      -1.96017570       2.86887423       0.00000000
Si      -2.29995252      -0.04271238      -2.85573940       0.00000000
Si      -1.68990831       0.49083399       3.23506361       0.00000000
Si       3.41175058      -0.44494506      -1.45924160       0.00000000
