10
Lattice="16.28999089631971 0.0 0.0 0.0 16.28999089631971 0.0 0.0 0.0 34.474598006748145" Properties=species:S:1:pos:R:3:initial_magmoms:R:1 pbc="T T T"
Si      -1.82514137      -1.11868317      -0.89978751       0.00000000
Si       1.17708282      -1.39857795       1.43404065       0.00000000
Si       1.54051272       0.10964799      -1.79957502       0.00000000
Si      -0.13276350       1.83184308      -1.82456912       0.00000000
Si      -0.52137774       2.47163283       0.59168786       0.00000000
Si       0.26179659      -2.26175247      -1.52298517       0.00000000
Si       0.11570787      -3.42884952       1.05092423       0.00000000
Si       3.41312967      -1.15572663       0.68339034       0.00000000
Si       3.52650807       0.91505817      -0.47885243       0.00000000
Si      -3.64983056       0.29765088      -0.50574264       0.00000000
