10
Lattice="16.28999089631971 0.0 0.0 0.0 16.28999089631971 0.0 0.0 0.0 34.474598006748145" Properties=species:S:1:pos:R:3:initial_magmoms:R:1 pbc="T T T"
Si      -1.35790182      -1.35695700      -1.35943758       0.00000000
Si       1.35755973       1.35787580      -1.35926521       0.00000000
Si       1.36246302      -1.36246302       1.35043971       0.00000000
Si      -1.36611198       1.36542780       1.35505931       0.00000000
Si      -2.71397916      -2.71288773      -0.00227532       0.00000000
Si       2.71376739      -2.71422351      -0.00334404       0.00000000
Si       2.71476108       2.71377132      -0.00224085       0.00000000
Si      -2.71397916       2.71508592      -0.00424038       0.00000000
Si      -0.00011403      -2.71459818      -2.71680669       0.00000000
Si       2.71498914       0.00004887      -2.71691011       0.00000000
