10
Lattice="16.28999089631971 0.0 0.0 0.0 16.28999089631971 0.0 0.0 0.0 34.474598006748145" Properties=species:S:1:pos:R:3:initial_magmoms:R:1 pbc="T T T"
Si      -2.29341046       0.16205292      -0.39780261       0.00000000
Si       0.56348739      -1.22067486       1.99901068       0.00000000
Si       0.75621438      -0.79928514      -2.16693654       0.00000000
Si       0.81726930       2.30935185       0.32602646       0.00000000
Si       2.89259901      -1.38751704      -1.45844868       0.00000000
Si      -2.12143856       0.80760933      -2.72518402       0.00000000
Si       0.23754078       1.08861183      -3.44218711       0.00000000
Si      -0.31605858       0.19253151       3.64124355       0.00000000
Si       3.70015947      -0.28266408       0.48919482       0.00000000
Si       3.17483955       1.99666530       0.47647369       0.00000000
