10
Lattice="16.28999089631971 0.0 0.0 0.0 16.28999089631971 0.0 0.0 0.0 34.474598006748145" Properties=species:S:1:pos:R:3:initial_magmoms:R:1 pbc="T T T"
Si       1.34811153       1.34876313      -1.38212188       0.00000000
Si      -1.36526490       1.36386396       1.35605907       0.00000000
Si      -1.36775727      -1.36086660      -1.37481326       0.00000000
Si       1.48379094      -1.23004161       1.48809685       0.00000000
Si      -2.43898767      -0.39478815       2.63027540       0.00000000
Si       2.70223407      -2.68711695      -0.01461724       0.00000000
Si       2.72363913       2.69560404      -0.01330720       0.00000000
Si      -2.72320907       2.71217097      -0.02030555       0.00000000
Si       2.70490563      -0.00242721      -2.74086997       0.00000000
Si      -0.01001835       2.71366965      -2.74093892       0.00000000
