10
Lattice="16.28999089631971 0.0 0.0 0.0 16.28999089631971 0.0 0.0 0.0 34.474598006748145" Properties=species:S:1:pos:R:3:initial_magmoms:R:1 pbc="T T T"
Si       1.35364361       1.35508365      -1.36116131       0.00000000
Si       1.35794417      -1.34830701       1.37636462       0.00000000
Si      -1.36369130      -1.35746199      -1.36271267       0.00000000
Si      -1.21492807       1.46181573       1.39556698       0.00000000
Si      -2.00412353      -0.43561089       2.71325580       0.00000000
Si       2.60264678       0.18580374       2.59852428       0.00000000
Si      -2.72036225      -2.69780319      -0.00337851       0.00000000
Si      -0.00401386       2.71321353      -2.71915096       0.00000000
Si      -2.72472797       2.70762606       0.01661677       0.00000000
Si      -0.00188312      -2.71318095      -2.71953018       0.00000000
