10
Lattice="16.28999089631971 0.0 0.0 0.0 16.28999089631971 0.0 0.0 0.0 34.474598006748145" Properties=species:S:1:pos:R:3:initial_magmoms:R:1 pbc="T T T"
Si       1.35731864      -1.35909099       1.36216108       0.00000000
Si      -1.36049273       1.35666709       1.36209213       0.00000000
Si      -1.35743334      -1.38507354      -1.35522823       0.00000000
Si       1.37720873       1.35943790      -1.37513732       0.00000000
Si      -2.62416003       0.05328459      -2.65696910       0.00000000
Si       2.71417790      -2.71296918       0.00106871       0.00000000
Si       2.71515530       2.71228404       0.00792916       0.00000000
Si      -2.71704561       2.71267174       0.00634333       0.00000000
Si      -2.71380390      -2.71800279       0.00330956       0.00000000
Si       2.71377065      -0.00130320       2.71956466       0.00000000
