10
Lattice="16.28999089631971 0.0 0.0 0.0 16.28999089631971 0.0 0.0 0.0 34.474598006748145" Properties=species:S:1:pos:R:3:initial_magmoms:R:1 pbc="T T T"
Si      -0.11740498      -1.58578263       1.72248978       0.00000000
Si      -0.92288032       2.16645338       0.35288218       0.00000000
Si       2.24502688       0.80497035      -0.59072257       0.00000000
Si      -0.62993725      -1.69564239      -1.68056864       0.00000000
Si       3.05661097      -1.29935556      -1.30365765       0.00000000
Si      -1.67007004       2.70248561      -1.86552496       0.00000000
Si       1.09375882      -0.67851108       3.49900128       0.00000000
Si       0.70140114       3.50325314       1.47123877       0.00000000
Si       1.21874873      -3.45445740       1.30420925       0.00000000
Si       2.00305522       2.08570874      -2.62613845       0.00000000
