10
Lattice="16.28999089631971 0.0 0.0 0.0 16.28999089631971 0.0 0.0 0.0 34.474598006748145" Properties=species:S:1:pos:R:3:initial_magmoms:R:1 pbc="T T T"
Si      -0.13349655       0.61454025       2.24564209       0.00000000
Si       1.20231603      -1.83832650      -0.88737665       0.00000000
Si      -2.31940767      -0.48125547       0.22704983       0.00000000
Si       1.52715492       1.72863846      -0.72555280       0.00000000
Si       1.99440099      -0.25736571       2.69639772       0.00000000
Si      -0.55490256       2.90366711       1.70249450       0.00000000
Si      -2.14390572      -2.48929119       1.49681893       0.00000000
Si       0.53706501       2.41681113      -2.74538615       0.00000000
Si      -0.08081469      -2.58983307      -2.72859701       0.00000000
Si       2.96077266      -0.84447360      -2.18472545       0.00000000
