10
Lattice="16.28999089631971 0.0 0.0 0.0 16.28999089631971 0.0 0.0 0.0 34.529650657227435" Properties=species:S:1:pos:R:3:initial_magmoms:R:1 pbc="T T T"
Si       1.35332433       1.36196059       1.38835170       0.00000000
Si      -1.36221867      -1.35311719       1.38876606       0.00000000
Si      -1.32709743       1.49663653      -1.38625921       0.00000000
Si       1.40861259      -1.38084277      -1.48665768       0.00000000
Si       2.71827972      -2.69585302       0.02184002       0.00000000
Si      -2.70726768      -2.71385347      -0.00168850       0.00000000
Si       2.71446786       2.71538266      -0.00681270       0.00000000
Si      -2.71606428       2.73255232       0.02788961       0.00000000
Si      -0.00467523      -2.70881986       2.75130684       0.00000000
Si       2.71178001       0.00367603       2.75206649       0.00000000
