10
Lattice="16.28999089631971 0.0 0.0 0.0 16.28999089631971 0.0 0.0 0.0 34.529650657227435" Properties=species:S:1:pos:R:3:initial_magmoms:R:1 pbc="T T T"
Si       1.35812988      -1.35819718       1.36039994       0.00000000
Si      -1.35782037       1.35782852       1.36205736       0.00000000
Si       1.36156707       1.36911749      -1.36274105       0.00000000
Si      -1.35513252      -1.37100385      -1.37320009       0.00000000
Si       2.71410948       2.71358005       0.00279690       0.00000000
Si      -2.71586554      -2.71200711       0.00300408       0.00000000
Si      -2.71385210       2.71553485       0.00459245       0.00000000
Si       2.71541268      -2.71655202      -0.00186460       0.00000000
Si      -2.71403455      -0.00080798       2.71803750       0.00000000
Si       0.00115659       2.71437826       2.71800297       0.00000000
