10
Lattice="16.28999089631971 0.0 0.0 0.0 16.28999089631971 0.0 0.0 0.0 34.529650657227435" Properties=species:S:1:pos:R:3:initial_magmoms:R:1 pbc="T T T"
Si      -1.35760860      -1.35727970       1.35770662       0.00000000
Si       1.35798327       1.35781925       1.35819004       0.00000000
Si      -1.35812988       1.35819718      -1.36039994       0.00000000
Si       1.35728280      -1.35835484      -1.36226454       0.00000000
Si       2.71482624      -2.71405751       0.00027624       0.00000000
Si       2.71394658       2.71563474       0.00096683       0.00000000
Si      -0.00016290      -2.71418783       2.71548230       0.00000000
Si       0.00110772       2.71550442       2.71434283       0.00000000
Si       2.71487511       0.00020033       2.71503342       0.00000000
Si      -2.71513575      -0.00003303       2.71534419       0.00000000
