10
Lattice="16.28999089631971 0.0 0.0 0.0 16.28999089631971 0.0 0.0 0.0 34.529650657227435" Properties=species:S:1:pos:R:3:initial_magmoms:R:1 pbc="T T T"
Si       1.35430173      -1.35757602      -1.35819004       0.00000000
Si       1.35601218       1.35830907       1.35756850       0.00000000
Si      -1.35865116      -1.35677781       1.35701603       0.00000000
Si      -1.35956340       1.35966114      -1.36385290       0.00000000
Si       0.00175932      -2.70203859      -2.72372799       0.00000000
Si       2.71226871      -2.71371852       0.00037983       0.00000000
Si       2.71306692      -0.00019548       2.71368676       0.00000000
Si       2.71109583       2.71608057       0.00069059       0.00000000
Si      -0.00057015      -2.71384884       2.71375582       0.00000000
Si      -0.00154755       2.71570590       2.71455000       0.00000000
