10
Lattice="16.28999089631971 0.0 0.0 0.0 16.28999089631971 0.0 0.0 0.0 34.529650657227435" Properties=species:S:1:pos:R:3:initial_magmoms:R:1 pbc="T T T"
Si       1.34646624       1.34280099       1.35114599       0.00000000
Si       1.34930070      -1.34956134      -1.35411554       0.00000000
Si      -1.36391283       1.36218609      -1.35100787       0.00000000
Si      -1.35645201      -1.33382520       1.40104136       0.00000000
Si      -0.28095363       2.40072246       2.61037399       0.00000000
Si      -2.22065280       0.66855789       2.71931510       0.00000000
Si       2.66927940      -0.05486472       2.74465988       0.00000000
Si       2.70888039      -2.70726768       0.00697499       0.00000000
Si      -0.00495216      -2.70819621      -2.70961226       0.00000000
Si       2.70868491       0.00545715      -2.70968132       0.00000000
