10
Lattice="16.28999089631971 0.0 0.0 0.0 16.28999089631971 0.0 0.0 0.0 34.529650657227435" Properties=species:S:1:pos:R:3:initial_magmoms:R:1 pbc="T T T"
Si       1.68151896       1.24423997       1.08205627       0.00000000
Si       1.24229169      -1.86911201      -0.76524655       0.00000000
Si      -1.60614187      -0.92232677       1.55904913       0.00000000
Si      -0.60307209       1.40406116      -1.88359350       0.00000000
Si       1.21665123      -3.01162745       1.23882097       0.00000000
Si       3.44256570       0.82874723      -0.47851217       0.00000000
Si      -1.06510536      -3.23636429       1.47617792       0.00000000
Si       3.38836887      -1.23962990      -1.48833236       0.00000000
Si      -0.01469358      -3.30662306      -2.22512646       0.00000000
Si       1.88108775       0.49675703       3.48286969       0.00000000
