10
Lattice="16.28999089631971 0.0 0.0 0.0 16.28999089631971 0.0 0.0 0.0 34.529650657227435" Properties=species:S:1:pos:R:3:initial_magmoms:R:1 pbc="T T T"
Si      -1.56450789      -1.75765842       0.01788637       0.00000000
Si      -1.02086172       2.12389020       0.19681912       0.00000000
Si       1.11180879      -0.12877245      -2.11811901       0.00000000
Si       1.00628217      -0.06753834       2.23030591       0.00000000
Si       0.95443110       3.22621821       0.80699292       0.00000000
Si      -0.74528379      -1.29818268       3.34533801       0.00000000
Si      -0.92934450      -3.02941872       1.84678487       0.00000000
Si      -3.56468368      -0.83021985       0.83903645       0.00000000
Si       1.62883710      -2.39453226      -2.44342303       0.00000000
Si      -2.61027702       0.11124441       2.83609444       0.00000000
