10
Lattice="16.28999089631971 0.0 0.0 0.0 16.28999089631971 0.0 0.0 0.0 34.529650657227435" Properties=species:S:1:pos:R:3:initial_magmoms:R:1 pbc="T T T"
Si      -1.86844671       0.88208721       1.10857505       0.00000000
Si       1.96719669       0.41171346       1.24904175       0.00000000
Si      -0.21813939      -2.25510615      -0.70084871       0.00000000
Si      -0.26999046       1.03865040      -2.12416171       0.00000000
Si      -3.33260820       0.13243770      -0.63776300       0.00000000
Si      -2.24528328      -0.06367761      -2.73433550       0.00000000
Si       1.99208781      -3.00895848      -0.27513241       0.00000000
Si      -1.39592268       3.24138420       0.81969984       0.00000000
Si       3.47656293      -1.17651267       0.30693424       0.00000000
Si      -0.91303821       3.25738098      -1.53543083       0.00000000
