10
Lattice="16.28999089631971 0.0 0.0 0.0 16.28999089631971 0.0 0.0 0.0 34.529650657227435" Properties=species:S:1:pos:R:3:initial_magmoms:R:1 pbc="T T T"
Si       0.56710377       2.24862273      -0.18414673       0.00000000
Si      -1.96719669      -0.41171346      -1.24904175       0.00000000
Si       1.50936624      -1.58822613      -0.94210752       0.00000000
Si       0.01532889       0.12821859       2.43299507       0.00000000
Si       3.06517527      -1.44664974       0.82529364       0.00000000
Si       1.92955050      -1.42620579       2.85570729       0.00000000
Si       0.02489112      -3.42067194      -1.52417416       0.00000000
Si       1.05924096       2.69703756      -2.42429360       0.00000000
Si      -1.29228570       3.56376330       0.58610662       0.00000000
Si      -3.83564340       0.47037375      -0.14046670       0.00000000
