10
Lattice="16.28999089631971 0.0 0.0 0.0 16.28999089631971 0.0 0.0 0.0 34.529650657227435" Properties=species:S:1:pos:R:3:initial_magmoms:R:1 pbc="T T T"
Si       1.35847197      -1.35778779      -1.36229907       0.00000000
Si      -1.35891180       1.35878148      -1.36171206       0.00000000
Si       1.35690813       1.35687555       1.37383198       0.00000000
Si      -1.35765747      -1.37034738       1.39416995       0.00000000
Si      -0.08353512       2.69997923       2.69158777       0.00000000
Si      -2.71031391      -2.71379997      -0.00086324       0.00000000
Si      -2.71634121       2.71658556      -0.00628440       0.00000000
Si       2.71785618      -2.71559187      -0.00473056       0.00000000
Si       2.72038113       2.71309950      -0.00483415       0.00000000
Si       0.00066789      -2.71463076      -2.71903886       0.00000000
