10
Lattice="16.28999089631971 0.0 0.0 0.0 16.28999089631971 0.0 0.0 0.0 34.529650657227435" Properties=species:S:1:pos:R:3:initial_magmoms:R:1 pbc="T T T"
Si       1.33356456       1.36075813       1.33961308       0.00000000
Si      -1.35435060       1.35466404      -1.35539313       0.00000000
Si       1.35742941      -1.35780408      -1.35542766       0.00000000
Si      -1.34964279      -1.35615879       1.39095869       0.00000000
Si       2.63280609      -0.01660633       2.69787217       0.00000000
Si      -2.71091664      -2.71479366       0.00666423       0.00000000
Si      -2.71383255      -0.00112756      -2.71285805       0.00000000
Si       0.00114030      -2.71528236      -2.71271993       0.00000000
Si       0.00241092       2.71440989      -2.71385941       0.00000000
Si       2.71617831      -0.00089420      -2.71316882       0.00000000
