10
Lattice="16.28999089631971 0.0 0.0 0.0 16.28999089631971 0.0 0.0 0.0 34.529650657227435" Properties=species:S:1:pos:R:3:initial_magmoms:R:1 pbc="T T T"
Si      -1.72882512       1.24884027       1.02004098       0.00000000
Si       0.98551242       1.55699138      -1.54879382       0.00000000
Si      -1.65982068      -1.20115944      -1.35449536       0.00000000
Si       1.92981114      -0.54089316       1.66429556       0.00000000
Si      -0.71527761       1.91132592       2.97528354       0.00000000
Si       0.87394221       0.36760014       3.58435239       0.00000000
Si       2.42595567       0.21388770      -2.86654961       0.00000000
Si      -0.28860993      -2.51333523      -2.84621163       0.00000000
Si       1.92826359       3.34067894      -0.17275194       0.00000000
Si      -0.51619752      -1.59376473       3.60962811       0.00000000
