10
Lattice="16.28999089631971 0.0 0.0 0.0 16.28999089631971 0.0 0.0 0.0 34.529650657227435" Properties=species:S:1:pos:R:3:initial_magmoms:R:1 pbc="T T T"
Si      -0.13799259       2.13600996       0.96869536       0.00000000
Si       0.32149944      -1.74558753       1.54433949       0.00000000
Si       2.14570251       0.01389537      -1.00174026       0.00000000
Si      -1.77583806      -0.25689330      -1.57555431       0.00000000
Si       1.42628724      -1.26775296      -2.89866220       0.00000000
Si      -0.38727846       0.12611718      -3.44934138       0.00000000
Si      -2.75807619       1.85921028      -1.35653261       0.00000000
Si       0.66192786      -3.62046879       0.04188449       0.00000000
Si      -0.06520887       1.74249243       3.24178353       0.00000000
Si       3.55291416      -0.66989367       0.82477570       0.00000000
