10
Lattice="16.28999089631971 0.0 0.0 0.0 16.28999089631971 0.0 0.0 0.0 34.529650657227435" Properties=species:S:1:pos:R:3:initial_magmoms:R:1 pbc="T T T"
Si      -1.34915409      -1.32844365      -1.36464709       0.00000000
Si      -1.44508590       1.29972697       1.33446815       0.00000000
Si       1.36464588       1.38867037      -1.36036541       0.00000000
Si       1.33231023      -1.38027843       1.45656507       0.00000000
Si       1.87752024       0.58407469       2.69687081       0.00000000
Si       0.06333552       2.44317094       2.74876891       0.00000000
Si      -2.71262709      -2.68466760       0.01401905       0.00000000
Si       2.72453508      -2.67362298       0.01139479       0.00000000
Si       0.00231318      -2.68430922      -2.72245730       0.00000000
Si      -2.71274112       0.02975694      -2.72197388       0.00000000
