10
Lattice="16.28999089631971 0.0 0.0 0.0 16.28999089631971 0.0 0.0 0.0 34.529650657227435" Properties=species:S:1:pos:R:3:initial_magmoms:R:1 pbc="T T T"
Si      -1.02555324       0.78078784      -2.00278992       0.00000000
Si       0.45022302       1.82349446       1.52206785       0.00000000
Si       1.29541338      -2.04858057      -0.17364971       0.00000000
Si      -1.02400569      -3.10078425      -0.16574242       0.00000000
Si      -2.07987462      -2.19229095       1.75431441       0.00000000
Si       0.73968003       1.63839118      -3.37613848       0.00000000
Si       1.21202487       3.66240740       0.14257301       0.00000000
Si      -3.66909444      -0.64856517       1.14524556       0.00000000
Si      -1.54798983       2.20655380       2.85608712       0.00000000
Si       1.91143602       1.06050343       3.30518001       0.00000000
