10
Lattice="16.28999089631971 0.0 0.0 0.0 16.28999089631971 0.0 0.0 0.0 34.529650657227435" Properties=species:S:1:pos:R:3:initial_magmoms:R:1 pbc="T T T"
Si       0.85739157      -1.66416522       1.41975644       0.00000000
Si       0.80324361      -0.83132757      -2.04577936       0.00000000
Si       1.39548285       1.93460040       0.12872661       0.00000000
Si      -2.31803442      -0.51228792      -0.36373554       0.00000000
Si      -1.16405082      -2.47755587       2.17454050       0.00000000
Si       3.15297837      -0.32915574      -1.75003273       0.00000000
Si      -2.65618224       0.31472280      -2.49487224       0.00000000
Si      -2.41730568      -2.83281406       0.16746890       0.00000000
Si       0.52341399      -3.20392439      -1.85648771       0.00000000
Si       3.63956067       1.15395102       0.11498380       0.00000000
