10
Lattice="16.28999089631971 0.0 0.0 0.0 16.28999089631971 0.0 0.0 0.0 34.529650657227435" Properties=species:S:1:pos:R:3:initial_magmoms:R:1 pbc="T T T"
Si      -1.28070351       0.89617806      -1.75206998       0.00000000
Si       1.54385217      -1.59698363      -0.76131016       0.00000000
Si      -1.57806117      -1.39803224       1.03727129       0.00000000
Si       0.64208664       1.86544935       1.31088439       0.00000000
Si       0.38986857       0.36828432      -3.29958620       0.00000000
Si       0.29059731      -1.95224182      -2.76838176       0.00000000
Si      -3.48876414      -0.18231768       0.51987871       0.00000000
Si      -1.35268902       2.01132630       2.59283292       0.00000000
Si       1.39515705      -1.41298645       2.95763888       0.00000000
Si      -1.60884927       3.08708532      -1.02995100       0.00000000
