10
Lattice="16.28999089631971 0.0 0.0 0.0 16.28999089631971 0.0 0.0 0.0 34.529650657227435" Properties=species:S:1:pos:R:3:initial_magmoms:R:1 pbc="T T T"
Si       1.39598784       0.68270575      -1.76657244       0.00000000
Si      -0.48723879      -2.32049325       0.44380985       0.00000000
Si       1.44524880       0.79360807       1.82748278       0.00000000
Si      -2.14215848       0.97328678      -0.87356612       0.00000000
Si      -2.17784987      -1.07168978       2.01882139       0.00000000
Si      -0.36931548      -0.01514156       3.17339204       0.00000000
Si       0.72119088       3.01295768      -1.84561086       0.00000000
Si       0.32454567      -0.53061580      -3.56080315       0.00000000
Si      -1.45713561       3.28845416      -0.81483115       0.00000000
Si      -2.04233336       0.07006655      -3.09441090       0.00000000
