10
Lattice="16.28999089631971 0.0 0.0 0.0 16.28999089631971 0.0 0.0 0.0 34.529650657227435" Properties=species:S:1:pos:R:3:initial_magmoms:R:1 pbc="T T T"
Si       1.90197153       1.02908817      -0.85012047       0.00000000
Si      -1.57164291      -0.69923196      -1.61861281       0.00000000
Si       0.26603199      -1.72544820       1.68159493       0.00000000
Si      -1.85238477       1.16028783       1.20152893       0.00000000
Si      -2.97294129      -0.82194453       0.28335047       0.00000000
Si      -0.58557663      -0.02774187       3.27047769       0.00000000
Si       1.10179044       3.22631595      -0.95685168       0.00000000
Si      -1.37135736       1.05073758      -3.19565189       0.00000000
Si      -1.92313224      -2.76949548       1.47928559       0.00000000
Si       1.87279614      -3.14992304      -0.68672608       0.00000000
