10
Lattice="16.28999089631971 0.0 0.0 0.0 16.28999089631971 0.0 0.0 0.0 34.529650657227435" Properties=species:S:1:pos:R:3:initial_magmoms:R:1 pbc="T T T"
Si       1.35552348       1.34353404       1.37027542       0.00000000
Si      -1.36208835       1.35094599      -1.35898422       0.00000000
Si       1.35373158      -1.36306575      -1.36002011       0.00000000
Si      -1.36616085      -1.38310245       1.34275528       0.00000000
Si       2.71420722       2.70930393      -0.00258973       0.00000000
Si      -2.71396287       2.71109583       0.00127760       0.00000000
Si      -0.00298107       2.71026504      -2.71689802       0.00000000
Si       2.71137276      -0.00400734      -2.71700161       0.00000000
Si       2.71047681      -2.71893132       0.00017265       0.00000000
Si      -2.71855665      -0.00454491      -2.71720879       0.00000000
