10
Lattice="16.28999089631971 0.0 0.0 0.0 16.28999089631971 0.0 0.0 0.0 34.529650657227435" Properties=species:S:1:pos:R:3:initial_magmoms:R:1 pbc="T T T"
Si       1.06010433       1.85821659      -1.10758440       0.00000000
Si       1.49703471      -1.18920258       1.48443742       0.00000000
Si      -1.22495913       1.50192171       1.50078722       0.00000000
Si      -1.31400027      -1.43571915      -1.56304908       0.00000000
Si      -2.65794156      -2.63318076       0.06103810       0.00000000
Si      -2.61920394       2.71524978       0.00205797       0.00000000
Si       0.14165784      -2.53923633       2.87016141       0.00000000
Si       2.76724746      -2.66067828       0.02716104       0.00000000
Si      -2.57111586       0.17782164       2.87913913       0.00000000
Si      -0.71400699       3.61072737      -1.32158310       0.00000000
