10
Lattice="16.28999089631971 0.0 0.0 0.0 16.28999089631971 0.0 0.0 0.0 34.529650657227435" Properties=species:S:1:pos:R:3:initial_magmoms:R:1 pbc="T T T"
Si       1.35545832       1.35793440       1.35660167       0.00000000
Si      -1.35795069       1.35728280      -1.35739586       0.00000000
Si       1.35751086      -1.35814617      -1.35770662       0.00000000
Si      -1.35764118      -1.35905841       1.35698150       0.00000000
Si       0.00283446       2.71331127       2.71441188       0.00000000
Si      -0.00066789       2.71278999      -2.71506795       0.00000000
Si      -2.71137276       0.00400734       2.71700161       0.00000000
Si      -2.71435383       2.71427238       0.00010359       0.00000000
Si       2.71383255      -0.00166158      -2.71548230       0.00000000
Si       2.71467963       2.71513575      -0.00041436       0.00000000
