10
Lattice="16.28999089631971 0.0 0.0 0.0 16.28999089631971 0.0 0.0 0.0 34.529650657227435" Properties=species:S:1:pos:R:3:initial_magmoms:R:1 pbc="T T T"
Si       1.35836283      -1.33742202       1.39190481       0.00000000
Si      -1.34656593       1.40214546       1.39008164       0.00000000
Si      -1.80853439      -1.05654822      -1.15457065       0.00000000
Si       1.81456428       0.80874963      -1.34590926       0.00000000
Si       0.36931548       0.01514156      -3.17339204       0.00000000
Si      -0.11792331      -2.30535170      -2.72958219       0.00000000
Si       2.68192533       2.68157835      -0.07610339       0.00000000
Si       2.77681458      -2.63139605      -0.09089936       0.00000000
Si      -0.00237019      -2.67842528       2.76810897       0.00000000
Si      -2.77834325       2.69320941      -0.04832773       0.00000000
