10
Lattice="16.28999089631971 0.0 0.0 0.0 16.28999089631971 0.0 0.0 0.0 34.529650657227435" Properties=species:S:1:pos:R:3:initial_magmoms:R:1 pbc="T T T"
Si       1.34915409       1.32844365       1.36464709       0.00000000
Si       1.35146727      -1.35586557      -1.35781021       0.00000000
Si      -1.36358703       1.35820060      -1.35732680       0.00000000
Si      -1.36347300      -1.35622395       1.37866613       0.00000000
Si      -0.09593181       2.62817063       2.69911524       0.00000000
Si       2.70449838      -2.71042794       0.00134666       0.00000000
Si       2.70967860       0.00231435      -2.71461906       0.00000000
Si      -0.00464265      -2.71274112      -2.71455000       0.00000000
Si       2.71379997       2.71711403       0.00428168       0.00000000
Si      -0.00539199       2.71773305      -2.71479171       0.00000000
