10
Lattice="16.28999089631971 0.0 0.0 0.0 16.28999089631971 0.0 0.0 0.0 34.529650657227435" Properties=species:S:1:pos:R:3:initial_magmoms:R:1 pbc="T T T"
Si      -1.35482301      -1.35733656       1.35805192       0.00000000
Si      -1.35303111       1.36032903      -1.35836269       0.00000000
Si       1.35993807       1.35808101       1.35770662       0.00000000
Si       1.36244673      -1.35862184      -1.36350761       0.00000000
Si      -2.71350675       2.71383255       0.00034530       0.00000000
Si      -2.71261080       0.00087966       2.71475718       0.00000000
Si      -2.71135647      -2.71602347       0.00093230       0.00000000
Si       0.00245979      -2.71453904       2.71492983       0.00000000
Si       0.00281817       2.71492398       2.71517154       0.00000000
Si       2.71776562       2.71329498       0.00041436       0.00000000
