10
Lattice="16.28999089631971 0.0 0.0 0.0 16.28999089631971 0.0 0.0 0.0 34.529650657227435" Properties=species:S:1:pos:R:3:initial_magmoms:R:1 pbc="T T T"
Si      -1.35306369       1.35827812       1.36057259       0.00000000
Si      -1.35718506      -1.35652156      -1.35832816       0.00000000
Si       1.36000323      -1.35787838       1.35611826       0.00000000
Si       1.35765566       1.35886456      -1.35781021       0.00000000
Si       2.71328913      -2.71424536      -0.00172648       0.00000000
Si       0.00055386      -2.71403359      -2.71548230       0.00000000
Si      -2.71446786       0.00068092      -2.71520607       0.00000000
Si      -2.71539639      -2.71470148      -0.00151931       0.00000000
Si       2.71554367       0.00094482      -2.71572401       0.00000000
Si       2.71518203       2.71626139      -0.00082871       0.00000000
