10
Lattice="16.28999089631971 0.0 0.0 0.0 16.28999089631971 0.0 0.0 0.0 34.529650657227435" Properties=species:S:1:pos:R:3:initial_magmoms:R:1 pbc="T T T"
Si      -1.15776288       1.51488855      -1.31216199       0.00000000
Si       1.09017308       0.24146667       2.07174567       0.00000000
Si       1.55138534      -1.22520511      -1.30477264       0.00000000
Si      -1.98896013      -0.66161835       1.38056526       0.00000000
Si      -0.81528192      -0.69525720       3.40058549       0.00000000
Si      -2.53417014      -2.62597148       0.14025952       0.00000000
Si      -2.50183449       0.14297733      -2.67667096       0.00000000
Si       0.21123243      -2.57317917      -2.68112528       0.00000000
Si       0.87463846       2.66642865       2.51579722       0.00000000
Si      -2.55200769       2.76920226       0.17002409       0.00000000
