10
Lattice="16.28999089631971 0.0 0.0 0.0 16.28999089631971 0.0 0.0 0.0 34.529650657227435" Properties=species:S:1:pos:R:3:initial_magmoms:R:1 pbc="T T T"
Si       1.17367821      -0.03363885       2.02002022       0.00000000
Si      -0.54521001      -1.96435313      -1.24030574       0.00000000
Si       1.98896013       0.66161835      -1.38056526       0.00000000
Si      -1.81418472       1.85909625       0.05189809       0.00000000
Si       3.07913321       0.90308502       0.69118040       0.00000000
Si      -1.87752024      -0.58407469      -2.69687081       0.00000000
Si       0.83119725       2.17650690      -2.69272725       0.00000000
Si      -3.32260614       0.71565228      -1.36240266       0.00000000
Si      -0.56304756       3.43082061      -1.21054117       0.00000000
Si       0.59274423       1.66895937       3.53970553       0.00000000
