10
Lattice="16.28999089631971 0.0 0.0 0.0 16.28999089631971 0.0 0.0 0.0 34.529650657227435" Properties=species:S:1:pos:R:3:initial_magmoms:R:1 pbc="T T T"
Si       0.39385962       1.02902301      -2.07495693       0.00000000
Si       1.16571240      -2.03886780      -0.12385793       0.00000000
Si      -2.34973476      -0.50217183      -0.29574662       0.00000000
Si       0.48658230       1.48310676       1.86501653       0.00000000
Si      -1.75749552       2.26375614       1.87875934       0.00000000
Si      -3.15297837       0.32915574       1.75003273       0.00000000
Si       0.76108509      -2.75265881      -2.36700888       0.00000000
Si       0.97479360      -0.67357521      -3.59464223       0.00000000
Si      -1.16670609       2.91227733      -2.25174884       0.00000000
Si       1.16685270       0.10221975       3.71083457       0.00000000
