10
Lattice="16.28999089631971 0.0 0.0 0.0 16.28999089631971 0.0 0.0 0.0 34.529650657227435" Properties=species:S:1:pos:R:3:initial_magmoms:R:1 pbc="T T T"
Si       0.60445674      -1.53487638      -1.72044081       0.00000000
Si       0.39698730       2.21791608      -0.91821298       0.00000000
Si       2.07977688      -0.06848316       1.26292268       0.00000000
Si      -2.21796495      -0.38429739       0.93164503       0.00000000
Si       3.29662359       0.38716443      -0.79407882       0.00000000
Si       1.07781156      -3.48895052      -0.49726178       0.00000000
Si       2.52969039      -0.66461571      -2.81651612       0.00000000
Si       2.76633522       2.64095109      -0.78002524       0.00000000
Si      -3.85595703       0.54719739      -0.53058291       0.00000000
Si       2.15521587       1.80121788       2.81689595       0.00000000
