10
Lattice="16.28999089631971 0.0 0.0 0.0 16.28999089631971 0.0 0.0 0.0 34.529650657227435" Properties=species:S:1:pos:R:3:initial_magmoms:R:1 pbc="T T T"
Si       0.74518605      -0.09153351       2.34943327       0.00000000
Si       2.51038674       0.10806786      -0.27799837       0.00000000
Si      -1.48726071       2.05001505      -0.02803809       0.00000000
Si      -0.71547309      -2.09735493      -1.25442838       0.00000000
Si       2.61021186      -0.79515237      -2.49884316       0.00000000
Si      -1.15771401      -0.91146785       3.61033393       0.00000000
Si       0.87649974      -2.31380621      -3.08329235       0.00000000
Si      -1.24501212      -3.71808566       0.61290164       0.00000000
Si      -3.01439934       1.78334775      -1.90510548       0.00000000
Si      -0.28048122       3.82899708      -1.15923008       0.00000000
