10
Lattice="16.28999089631971 0.0 0.0 0.0 16.28999089631971 0.0 0.0 0.0 34.529650657227435" Properties=species:S:1:pos:R:3:initial_magmoms:R:1 pbc="T T T"
Si       1.35782755       1.35521397      -1.35729227       0.00000000
Si      -1.35711990       1.35684297       1.35746491       0.00000000
Si       1.35736244      -1.35723393       1.35774115       0.00000000
Si      -1.35993807      -1.35808101      -1.35770662       0.00000000
Si      -2.71296918       0.00224802      -2.71606931       0.00000000
Si       2.71543290       0.00118917      -2.71361770       0.00000000
Si       2.71488881       0.00016290       2.71472265       0.00000000
Si      -2.71500543       2.71490769      -0.00017265       0.00000000
Si      -2.71476108      -2.71541757       0.00034530       0.00000000
Si      -2.71640637       0.00000000       2.71382488       0.00000000
