10
Lattice="16.28999089631971 0.0 0.0 0.0 16.28999089631971 0.0 0.0 0.0 34.529650657227435" Properties=species:S:1:pos:R:3:initial_magmoms:R:1 pbc="T T T"
Si      -1.84679730       1.40064678      -0.13442401       0.00000000
Si      -0.73438578      -1.72085931       1.40767106       0.00000000
Si      -0.12326643      -0.88112610      -2.18925013       0.00000000
Si       1.30584617       1.71455508       1.03606275       0.00000000
Si       2.37777704       1.55916477      -1.15857402       0.00000000
Si       1.42337037       0.61770051      -3.15563201       0.00000000
Si      -2.49261435      -1.30416111      -2.32743787       0.00000000
Si      -0.80982477      -3.59056035      -0.14630221       0.00000000
Si      -2.73308733      -0.80500293       2.43354755       0.00000000
Si       0.40702194      -3.13491276      -2.20330371       0.00000000
