10
Lattice="16.28999089631971 0.0 0.0 0.0 16.28999089631971 0.0 0.0 0.0 34.529650657227435" Properties=species:S:1:pos:R:3:initial_magmoms:R:1 pbc="T T T"
Si       1.31549895       1.58514732      -1.19679698       0.00000000
Si       1.46375416      -1.22839632       1.42581294       0.00000000
Si      -1.27013130       1.47290922       1.41712183       0.00000000
Si      -0.78436350      -1.95085782      -1.20552677       0.00000000
Si       0.10430487      -2.59230915       2.79722785       0.00000000
Si      -2.70189198      -2.71423980      -0.04642859       0.00000000
Si      -2.61307890       0.12680136       2.79812562       0.00000000
Si       2.76688486      -2.67527412       0.00258627       0.00000000
Si      -2.64435570       2.86568793      -0.01027603       0.00000000
Si      -0.08237853       2.56248216      -2.95107966       0.00000000
