10
Lattice="16.28999089631971 0.0 0.0 0.0 16.28999089631971 0.0 0.0 0.0 34.529650657227435" Properties=species:S:1:pos:R:3:initial_magmoms:R:1 pbc="T T T"
Si       1.35364238      -1.35345465      -1.35908781       0.00000000
Si      -1.37053174      -1.33952670       1.36682246       0.00000000
Si      -1.36030162       1.36270737      -1.35846628       0.00000000
Si       1.36399630       1.37173203       1.37144943       0.00000000
Si       2.70686245      -2.70593190       0.00569740       0.00000000
Si      -2.71460335      -2.71143792       0.00231349       0.00000000
Si      -0.00388399      -2.71085148      -2.71606931       0.00000000
Si       2.70207319       2.72487717      -0.00562834       0.00000000
Si       2.71139107       0.00434943      -2.71644914       0.00000000
Si      -2.71836634       0.00322542      -2.71634555       0.00000000
