10
Lattice="16.28999089631971 0.0 0.0 0.0 16.28999089631971 0.0 0.0 0.0 34.529650657227435" Properties=species:S:1:pos:R:3:initial_magmoms:R:1 pbc="T T T"
Si      -1.35850455       1.35617508      -1.36533768       0.00000000
Si       1.35949824      -1.35848826      -1.36412914       0.00000000
Si       1.36401057       1.34772057       1.38612454       0.00000000
Si      -1.35971001      -1.36347300       1.39196006       0.00000000
Si      -2.71112841       2.71155195      -0.00752747       0.00000000
Si      -2.71485882      -2.71668330      -0.00476509       0.00000000
Si       2.71790772       2.71490769      -0.00807994       0.00000000
Si       0.00071676       2.71337643      -2.72235371       0.00000000
Si      -2.71396287      -0.00175932      -2.72193935       0.00000000
Si       2.71716861      -0.00172674      -2.72231918       0.00000000
