10
Lattice="16.28999089631971 0.0 0.0 0.0 16.28999089631971 0.0 0.0 0.0 34.529650657227435" Properties=species:S:1:pos:R:3:initial_magmoms:R:1 pbc="T T T"
Si       1.33807689       1.35314514      -1.37707777       0.00000000
Si      -1.36399630      -1.37173203      -1.37144943       0.00000000
Si       1.84757922      -0.70563393       1.34020008       0.00000000
Si      -1.37157666       1.26395739       1.51039682       0.00000000
Si       0.94394034       0.11262906       3.40700800       0.00000000
Si       2.70383049       2.71065600      -0.00752747       0.00000000
Si      -2.71978559       2.69718417       0.02033798       0.00000000
Si       2.71178001      -2.70801702       0.02192634       0.00000000
Si       2.70431919      -0.01200573      -2.73012288       0.00000000
Si      -0.01103159       2.70339066      -2.73205655       0.00000000
