10
Lattice="16.28999089631971 0.0 0.0 0.0 16.28999089631971 0.0 0.0 0.0 34.529650657227435" Properties=species:S:1:pos:R:3:initial_magmoms:R:1 pbc="T T T"
Si      -0.02945232       1.03975812      -2.12802903       0.00000000
Si      -1.21000491       1.42498404       1.47969995       0.00000000
Si       2.20357178       0.29437659       0.91579591       0.00000000
Si      -1.45805274      -1.94277798      -0.22993307       0.00000000
Si      -2.01837987       3.06859617      -0.04516481       0.00000000
Si       1.93617306      -0.43914582       3.15027991       0.00000000
Si      -0.24267213      -1.20078477       3.52233710       0.00000000
Si       2.34081991       2.58214419       1.44627523       0.00000000
Si      -0.44184996      -3.06968760       2.15941650       0.00000000
Si      -2.16212283       0.04473234       3.15034897       0.00000000
