10
Lattice="16.28999089631971 0.0 0.0 0.0 16.28999089631971 0.0 0.0 0.0 34.529650657227435" Properties=species:S:1:pos:R:3:initial_magmoms:R:1 pbc="T T T"
Si       1.35484974       1.35829278       1.36640465       0.00000000
Si      -1.35426915      -1.36265850       1.36398757       0.00000000
Si       1.39842549      -1.26998469      -1.41517435       0.00000000
Si      -1.52010135       1.22352561      -1.36902545       0.00000000
Si      -0.14538825      -2.61234585      -2.63252339       0.00000000
Si       2.71558277       2.69929604      -0.00979952       0.00000000
Si       2.71177091      -0.00399105       2.72418033       0.00000000
Si      -0.00009136       2.71151284       2.72462921       0.00000000
Si      -2.71746522      -0.00140094       2.72435298       0.00000000
Si      -0.00139982      -2.71925712       2.72542340       0.00000000
