10
Lattice="16.28999089631971 0.0 0.0 0.0 16.28999089631971 0.0 0.0 0.0 34.529650657227435" Properties=species:S:1:pos:R:3:initial_magmoms:R:1 pbc="T T T"
Si       1.35317772       1.34613686      -1.37621453       0.00000000
Si      -1.36919079      -1.36524861      -1.37469522       0.00000000
Si      -1.39222485       1.29334455       1.44517028       0.00000000
Si       1.18853469      -1.50848658       1.42911398       0.00000000
Si      -2.27064681      -0.55372968       2.69289990       0.00000000
Si      -0.58042899      -2.38777191       2.87031334       0.00000000
Si       2.69333063       2.69411092       0.00013812       0.00000000
Si      -2.72453508       2.67362298      -0.01139479       0.00000000
Si       2.68226809      -2.73500955      -0.00842524       0.00000000
Si      -0.00682551       2.70401524      -2.73233278       0.00000000
