10
Lattice="16.28999089631971 0.0 0.0 0.0 16.28999089631971 0.0 0.0 0.0 34.529650657227435" Properties=species:S:1:pos:R:3:initial_magmoms:R:1 pbc="T T T"
Si      -0.81406017      -1.67081643      -1.45228339       0.00000000
Si       1.76896368       0.87928533      -1.44119936       0.00000000
Si       0.08252514      -1.18610748       2.16210981       0.00000000
Si      -1.69021782       1.83404223      -0.17741344       0.00000000
Si      -2.14037568      -0.34148727      -2.89068585       0.00000000
Si      -2.57036652      -2.65994523      -0.24543689       0.00000000
Si      -1.27970982      -3.08337120       1.63453099       0.00000000
Si       0.58042899       2.38777191      -2.87031334       0.00000000
Si      -3.56327460       0.86426595      -1.46381630       0.00000000
Si       2.46826147       2.00340936       2.36476445       0.00000000
