10
Lattice="16.28999089631971 0.0 0.0 0.0 16.28999089631971 0.0 0.0 0.0 34.529650657227435" Properties=species:S:1:pos:R:3:initial_magmoms:R:1 pbc="T T T"
Si      -0.47335482       1.95407414      -1.22317903       0.00000000
Si       2.12547033      -0.80379747      -0.68365294       0.00000000
Si      -1.61153712      -1.74003264      -0.43251865       0.00000000
Si       0.23568372       0.06322149       2.41597195       0.00000000
Si       0.80527986      -2.20387410       2.40595834       0.00000000
Si      -0.80316216      -3.38364477       1.09234611       0.00000000
Si      -1.07781156       3.48895052       0.49726178       0.00000000
Si       2.74766266      -2.22648462       1.05892139       0.00000000
Si      -2.01056067       1.38710557      -2.86029974       0.00000000
Si      -3.70152783      -0.75492747      -0.19505811       0.00000000
