10
Lattice="16.28999089631971 0.0 0.0 0.0 16.28999089631971 0.0 0.0 0.0 34.529650657227435" Properties=species:S:1:pos:R:3:initial_magmoms:R:1 pbc="T T T"
Si       1.00686861      -1.77578919       1.28212118       0.00000000
Si      -2.35748717      -0.49883238       0.16608771       0.00000000
Si       0.69525720      -0.11565900      -2.31279729       0.00000000
Si       1.17564930       1.97757342       0.75733925       0.00000000
Si      -0.69729345      -1.76836095       2.94845399       0.00000000
Si      -2.54828054      -2.32761294      -1.42203540       0.00000000
Si       2.53039086       1.26726426       2.59701101       0.00000000
Si       2.72129337       2.52841977      -0.99711328       0.00000000
Si       0.92528829      -2.42069400      -2.91050588       0.00000000
Si       3.04741917      -0.99849555       2.27170699       0.00000000
