10
Lattice="16.28999089631971 0.0 0.0 0.0 16.28999089631971 0.0 0.0 0.0 34.529650657227435" Properties=species:S:1:pos:R:3:initial_magmoms:R:1 pbc="T T T"
Si       0.63516339      -1.27176030       1.82889850       0.00000000
Si      -0.55136763      -1.40673924      -1.78456240       0.00000000
Si      -2.00017579       0.92743857       0.82115008       0.00000000
Si       1.56450789       1.75765842      -0.01788637       0.00000000
Si       0.81922410       0.45947574       3.32745165       0.00000000
Si      -0.20191455      -3.43875384      -0.67930220       0.00000000
Si      -1.04576913       1.86890283       2.81820807       0.00000000
Si      -0.73937052      -3.09340584       1.65341872       0.00000000
Si      -3.16909637       1.45678212      -1.13101934       0.00000000
Si      -2.80210757      -0.70087725      -2.31808033       0.00000000
