10
Lattice="16.28999089631971 0.0 0.0 0.0 16.28999089631971 0.0 0.0 0.0 34.529650657227435" Properties=species:S:1:pos:R:3:initial_magmoms:R:1 pbc="T T T"
Si       0.59054622       0.56366658      -2.24884834       0.00000000
Si       2.25073994      -0.70586199       0.53351793       0.00000000
Si      -1.66162026      -1.79519058       0.22330338       0.00000000
Si      -0.36698880       2.15765937       1.18706099       0.00000000
Si       0.80193178       1.62831582       3.13923041       0.00000000
Si       2.80210757       0.70087725       2.31808033       0.00000000
Si      -0.94551186       2.21408793      -3.07255362       0.00000000
Si      -0.98134986      -3.17607759       2.06912141       0.00000000
Si       0.41892130       3.89966310      -0.28259082       0.00000000
Si       2.94803339       1.06249896      -2.41493606       0.00000000
