10
Lattice="16.28999089631971 0.0 0.0 0.0 16.28999089631971 0.0 0.0 0.0 34.529650657227435" Properties=species:S:1:pos:R:3:initial_magmoms:R:1 pbc="T T T"
Si       0.95169438       0.04610070      -2.09277424       0.00000000
Si       1.50136785      -0.64027845       1.62771763       0.00000000
Si      -0.35613035       2.27840085       0.07582716       0.00000000
Si      -0.45430692      -1.36699164       2.84417235       0.00000000
Si      -2.19288554      -2.37102579       1.40573739       0.00000000
Si      -0.92786211       0.48141837      -3.45006650       0.00000000
Si       1.94748579       2.24539731      -2.24943535       0.00000000
Si      -1.90569284       2.89342980       1.64478910       0.00000000
Si       2.31767604       1.28590002       2.81507075       0.00000000
Si      -1.49090478      -3.44390148      -1.11261503       0.00000000
