10
Lattice="16.28999089631971 0.0 0.0 0.0 16.28999089631971 0.0 0.0 0.0 34.529650657227435" Properties=species:S:1:pos:R:3:initial_magmoms:R:1 pbc="T T T"
Si      -1.35702868       1.35742223      -1.35770662       0.00000000
Si       1.35752715      -1.35724667      -1.35763756       0.00000000
Si       1.35948195       1.35579160       1.35746491       0.00000000
Si      -1.35928321      -1.35776795       1.35629091       0.00000000
Si       2.71383255       0.00112756       2.71285805       0.00000000
Si      -2.71256912      -0.00140097       2.71413565       0.00000000
Si      -2.71380077      -0.00055684      -2.71451547       0.00000000
Si       2.71497285      -2.71415480       0.00013812       0.00000000
Si      -2.71461176      -2.71495301      -0.00017265       0.00000000
Si      -0.00081450       2.71605873      -2.71368676       0.00000000
