10
Lattice="16.28999089631971 0.0 0.0 0.0 16.28999089631971 0.0 0.0 0.0 34.529650657227435" Properties=species:S:1:pos:R:3:initial_magmoms:R:1 pbc="T T T"
Si      -1.00693703       2.09813571       0.27085073       0.00000000
Si       1.77564258      -0.24272100       1.62227295       0.00000000
Si      -1.44753266      -1.40742342      -1.47552186       0.00000000
Si       1.71391977       0.85926492      -1.93928985       0.00000000
Si      -1.06863215      -1.56701655       2.67701625       0.00000000
Si       0.57989142      -0.12663846       3.64332907       0.00000000
Si      -2.97571778       1.74381192       1.51975436       0.00000000
Si       2.63612925      -2.42660727       1.30201026       0.00000000
Si       0.27049545       3.33703908       1.82672313       0.00000000
Si      -1.09979329       3.26301732      -1.74716677       0.00000000
