10
Lattice="16.28999089631971 0.0 0.0 0.0 16.28999089631971 0.0 0.0 0.0 34.529650657227435" Properties=species:S:1:pos:R:3:initial_magmoms:R:1 pbc="T T T"
Si       2.08124298      -0.99678510      -0.32323224       0.00000000
Si       0.13724814       2.28776760       0.53047932       0.00000000
Si      -0.26739872      -0.73352241       2.23448400       0.00000000
Si      -2.20357178      -0.29437659      -0.91579591       0.00000000
Si      -1.80513467       2.31037812       1.87751627       0.00000000
Si       1.57915260      -3.20554620       0.21947058       0.00000000
Si      -3.41357669       1.13060745       0.56390404       0.00000000
Si       3.54540447      -0.24713559       1.42310582       0.00000000
Si      -2.23302410       0.74538153      -3.04382494       0.00000000
Si      -2.44624391      -1.49516136       2.60654120       0.00000000
