10
Lattice="16.28999089631971 0.0 0.0 0.0 16.28999089631971 0.0 0.0 0.0 34.529650657227435" Properties=species:S:1:pos:R:3:initial_magmoms:R:1 pbc="T T T"
Si       0.09285626      -1.16488161       2.01801750       0.00000000
Si       2.42070052       0.00376299      -0.12741448       0.00000000
Si      -1.77487762       1.52933778       0.69805181       0.00000000
Si       1.15601008      -0.07789878      -2.41431452       0.00000000
Si       2.81371306      -2.40375240      -0.19212308       0.00000000
Si       1.37028874       0.07402176       3.57388990       0.00000000
Si       1.09979329      -3.26301732       1.74716677       0.00000000
Si      -1.37025031       2.24312878       2.94120276       0.00000000
Si      -2.46826147      -2.00340936      -2.36476445       0.00000000
Si      -1.56116911       3.60842138      -0.52958155       0.00000000
