10
Lattice="16.290000149 0.0 0.0 0.0 16.290000149 0.0 0.0 0.0 29.1751946751" Properties=species:S:1:pos:R:3:initial_magmoms:R:1 pbc="T T T"
Si       1.36853920       1.34889346       1.33794525       0.00000000
Si       1.44274015      -1.33135402      -1.28306671       0.00000000
Si      -1.34974054      -1.38789335       1.33526113       0.00000000
Si      -1.37740096       1.33988509      -1.35877634       0.00000000
Si       0.11792331      -2.66797736      -2.62010753       0.00000000
Si       0.03336192       2.74437633      -2.61639937       0.00000000
Si       0.00317655       2.69606018       2.68823161       0.00000000
Si       2.69366555      -0.03476286       2.69788860       0.00000000
Si      -2.71238276      -0.02533095       2.68093781       0.00000000
Si      -2.79671610      -0.08928549      -2.59459966       0.00000000
