10
Lattice="16.290000149 0.0 0.0 0.0 16.290000149 0.0 0.0 0.0 29.1751946751" Properties=species:S:1:pos:R:3:initial_magmoms:R:1 pbc="T T T"
Si       1.08234019      -1.41990157      -1.49893398       0.00000000
Si      -1.54583956       1.32413266      -1.18497971       0.00000000
Si      -1.05547798      -1.76205674       1.18255817       0.00000000
Si       2.12688758       0.96966226       0.68051142       0.00000000
Si       0.21641265       0.80570341       3.38747350       0.00000000
Si       2.37667844      -2.71445159      -0.07258788       0.00000000
Si      -0.20240325       2.70290198      -2.49847615       0.00000000
Si       2.49787604      -0.09311364      -2.73680831       0.00000000
Si      -1.40571298      -0.88192432       3.31894097       0.00000000
Si       0.54574758      -3.53924688       1.09231929       0.00000000
