10
Lattice="16.290000149 0.0 0.0 0.0 16.290000149 0.0 0.0 0.0 29.1751946751" Properties=species:S:1:pos:R:3:initial_magmoms:R:1 pbc="T T T"
Si      -1.30536007       0.21478365       1.92249945       0.00000000
Si       2.20884257      -0.11297115       0.81007846       0.00000000
Si      -1.28849177      -0.21729231      -2.02998087       0.00000000
Si      -0.53111916       2.33543216       0.76678247       0.00000000
Si      -0.52165467      -2.03484908       1.69875489       0.00000000
H        2.07840854       0.67393360       2.09711299       0.00000000
H       -2.44897346       0.71804692      -1.74493922       0.00000000
H        0.22641471      -1.64673983      -2.65144169       0.00000000
H        0.65405980       2.72609894       1.65814301       0.00000000
H        0.76354489      -1.98627230       2.50976695       0.00000000
