10
Lattice="16.290000149 0.0 0.0 0.0 16.290000149 0.0 0.0 0.0 29.1751946751" Properties=species:S:1:pos:R:3:initial_magmoms:R:1 pbc="T T T"
Si       1.36511830       1.35545833       1.34684369       0.00000000
Si       1.36989127      -1.36342414      -1.33639897       0.00000000
Si      -1.34842105      -1.34749252       1.37838207       0.00000000
Si      -1.34825815       1.36067113      -1.36554499       0.00000000
Si      -0.00987174       2.71976213       2.67924565       0.00000000
Si       2.71577108      -0.02135619       2.68875677       0.00000000
Si       2.72139113       0.01215234      -2.68321348       0.00000000
Si      -2.69632082      -2.70922250       0.02768726       0.00000000
Si       0.02301777      -2.72029970      -2.69885138       0.00000000
Si      -2.70842429       0.00633681      -2.71906979       0.00000000
