10
Lattice="16.290000149 0.0 0.0 0.0 16.290000149 0.0 0.0 0.0 29.1751946751" Properties=species:S:1:pos:R:3:initial_magmoms:R:1 pbc="T T T"
Si      -1.39347919       1.28265832      -1.36148963       0.00000000
Si       1.43804863      -1.37119447      -1.23227270       0.00000000
Si      -1.37604889      -1.31706280       1.35886387       0.00000000
Si       0.87865003       1.88845085       1.07026284       0.00000000
Si       0.05475069      -2.72157032      -2.57199764       0.00000000
Si      -2.44258778       0.13859532       2.84326860       0.00000000
Si      -2.57603546       2.73220770       0.05234030       0.00000000
Si      -0.00996948       2.61873155      -2.70168138       0.00000000
Si       2.77969305      -0.03841182      -2.60525736       0.00000000
Si      -2.74559808      -0.06048477      -2.67186433       0.00000000
