10
Lattice="16.290000149 0.0 0.0 0.0 16.290000149 0.0 0.0 0.0 29.1751946751" Properties=species:S:1:pos:R:3:initial_magmoms:R:1 pbc="T T T"
Si      -1.35516511       1.35700588      -1.30471471       0.00000000
Si       1.38717496       1.35321031       1.29327803       0.00000000
Si       1.36070371      -1.34846992      -1.33400660       0.00000000
Si      -1.34653141      -1.31636233       1.38421711       0.00000000
H       -0.43706070      -2.20871225       2.19695051       0.00000000
Si       2.60894126      -0.18285525       2.53363226       0.00000000
Si      -2.66445758      -0.07384257      -2.62827659       0.00000000
Si      -2.55590102       2.75789703       0.17163767       0.00000000
Si       2.60157818      -2.73895176       0.03737342       0.00000000
Si       0.01762578       2.60978834      -2.73745017       0.00000000
