10
Lattice="16.290000149 0.0 0.0 0.0 16.290000149 0.0 0.0 0.0 29.1751946751" Properties=species:S:1:pos:R:3:initial_magmoms:R:1 pbc="T T T"
Si      -1.37116189       1.34573320       1.33823700       0.00000000
Si      -1.38561112      -1.35013150      -1.32487477       0.00000000
Si       1.36272367      -1.36572103       1.33566959       0.00000000
Si       1.37054287       1.35843940      -1.33782855       0.00000000
Si       0.00729792       2.68113854       2.68248410       0.00000000
Si      -0.05535342      -2.76958836      -2.61117992       0.00000000
Si      -0.00166158      -2.71326731       2.68583925       0.00000000
Si       2.69770547      -0.00050499      -2.70404457       0.00000000
Si      -2.72091872      -0.01910817       2.69476686       0.00000000
Si       2.72235224      -0.02199150       2.69899726       0.00000000
