10
Lattice="16.290000149 0.0 0.0 0.0 16.290000149 0.0 0.0 0.0 29.1751946751" Properties=species:S:1:pos:R:3:initial_magmoms:R:1 pbc="T T T"
Si      -0.53180334      -0.25501995       1.38786401       0.00000000
H       -0.69579478      -0.93462247      -1.62275350       0.00000000
H       -1.58245948       0.89536357      -1.17371808       0.00000000
H        1.25651287       1.75723490       0.41612580       0.00000000
Si       0.44111691      -0.99123022      -2.62264577       0.00000000
Si       2.17666982       1.82729819      -0.79169808       0.00000000
Si       2.50514138      -0.29668977      -1.72139484       0.00000000
Si       1.15530310      -1.18991935       2.69602139       0.00000000
Si      -2.32899761      -1.84943630       1.27326385       0.00000000
Si      -2.93161359       0.28668771      -1.43848297       0.00000000
