10
Lattice="16.290000149 0.0 0.0 0.0 16.290000149 0.0 0.0 0.0 29.1751946751" Properties=species:S:1:pos:R:3:initial_magmoms:R:1 pbc="T T T"
Si       0.85478518      -1.87235633      -1.11463831       0.00000000
Si       1.48657654       1.25064847       1.37412249       0.00000000
Si      -1.38947185       1.31551525      -1.42835918       0.00000000
Si      -1.31224096      -1.36731745       1.48510493       0.00000000
H        1.38658852      -1.61733637      -2.50250232       0.00000000
H        2.64310139       0.13989852      -2.08637652       0.00000000
Si       0.00412137       2.54820367       2.71361403       0.00000000
Si      -2.79969717       2.49202793       0.04145795       0.00000000
H       -0.19587096      -0.72197281      -3.67622040       0.00000000
Si       2.54189162      -2.80725573       0.19351907       0.00000000
