10
Lattice="16.290000149 0.0 0.0 0.0 16.290000149 0.0 0.0 0.0 29.1751946751" Properties=species:S:1:pos:R:3:initial_magmoms:R:1 pbc="T T T"
H       -0.06968862      -1.08092296      -1.05366216       0.00000000
Si       2.20120908       0.17500347       0.65781311       0.00000000
Si      -1.63092223      -0.66679858       1.55486282       0.00000000
Si      -0.45600597       2.13144878      -0.89987970       0.00000000
H       -1.90219961       2.43473600      -0.46992486       0.00000000
H        1.05759568       0.67826674      -3.00962556       0.00000000
Si      -3.16296417      -1.38767995      -0.05902142       0.00000000
H       -1.29567403      -3.23810994       0.66609887       0.00000000
Si       2.98491447      -2.07462926       0.43406855       0.00000000
Si       3.50656914      -0.03978018      -1.26468634       0.00000000
