10
Lattice="16.290000149 0.0 0.0 0.0 16.290000149 0.0 0.0 0.0 29.1751946751" Properties=species:S:1:pos:R:3:initial_magmoms:R:1 pbc="T T T"
Si       1.30163617       1.23996223      -1.50010098       0.00000000
Si       1.43508385      -1.35365014       1.29082731       0.00000000
Si      -1.47639529       1.36062226       1.25001122       0.00000000
Si      -1.44145324      -1.40462155      -1.31521778       0.00000000
Si       2.50162274      -2.80930827      -0.19357742       0.00000000
Si      -0.12048084       2.61368165      -2.75008303       0.00000000
Si      -2.86634770      -0.12137679       2.50576995       0.00000000
Si       0.12582396      -2.74406682       2.64902015       0.00000000
Si       2.48419244      -0.20958714      -2.91393092       0.00000000
Si       3.15509610       2.17339553      -0.39193957       0.00000000
