10
Lattice="16.290000149 0.0 0.0 0.0 16.290000149 0.0 0.0 0.0 29.1751946751" Properties=species:S:1:pos:R:3:initial_magmoms:R:1 pbc="T T T"
Si       1.41553585       1.32678793      -1.23787433       0.00000000
Si      -1.42521211      -1.38906460      -1.18069095       0.00000000
Si       1.29433825      -1.29455002       1.42634609       0.00000000
Si      -1.08234019       1.41990157       1.49893398       0.00000000
H        2.13715028      -0.35714196       2.23371125       0.00000000
Si      -0.53659260      -2.11934531       2.59125327       0.00000000
Si       1.04454739       2.38956383       2.17944539       0.00000000
Si      -2.13781817      -0.34215516       2.68149214       0.00000000
Si       2.64596843       2.46334124       0.38835102       0.00000000
Si       0.00886176      -2.71138907      -2.46224055       0.00000000
