10
Lattice="16.290000149 0.0 0.0 0.0 16.290000149 0.0 0.0 0.0 29.1751946751" Properties=species:S:1:pos:R:3:initial_magmoms:R:1 pbc="T T T"
Si       1.35980776       1.36337527      -1.34249658       0.00000000
Si      -1.35278677       1.38499210       1.33739092       0.00000000
Si       1.38732157      -1.34268697       1.34681451       0.00000000
Si      -1.35739684      -1.36300060      -1.35795944       0.00000000
Si      -2.70774011       0.03025053       2.67177680       0.00000000
Si       0.05036868      -2.79000462       2.60362355       0.00000000
Si       2.69154785       2.71823250       0.04078692       0.00000000
Si      -0.00011403       2.71646993      -2.69517531       0.00000000
Si       2.71075376       0.00281817      -2.70270251       0.00000000
Si      -2.72652248      -0.01487277      -2.69940571       0.00000000
