10
Lattice="16.290000149 0.0 0.0 0.0 16.290000149 0.0 0.0 0.0 29.1751946751" Properties=species:S:1:pos:R:3:initial_magmoms:R:1 pbc="T T T"
Si      -1.17068086       0.22315671      -2.01104617       0.00000000
Si       0.24496902       1.84630862       1.44688543       0.00000000
Si       2.32332869      -0.15051960      -0.56494847       0.00000000
Si      -1.13875246      -2.06301449       0.58286204       0.00000000
H        0.22924591      -1.67594780      -1.85046590       0.00000000
H       -2.68209965       0.60082408       0.06249327       0.00000000
H       -2.20991771      -0.86662801      -1.79191128       0.00000000
Si      -3.14569677      -0.69045166       0.69687870       0.00000000
Si       1.68332717       0.66569086       2.89989765       0.00000000
Si       1.93424204      -1.98544151      -2.03727467       0.00000000
