10
Lattice="16.290000149 0.0 0.0 0.0 16.290000149 0.0 0.0 0.0 29.1751946751" Properties=species:S:1:pos:R:3:initial_magmoms:R:1 pbc="T T T"
Si       2.26888588      -0.48707100       0.12355695       0.00000000
Si      -0.27906399       0.73158879       2.20847471       0.00000000
Si      -0.57471121       1.73736435      -1.51929826       0.00000000
Si      -1.53630991      -1.83604592      -0.42732908       0.00000000
H       -1.32677164       1.84402802       2.22942250       0.00000000
Si       2.53967618      -1.30800556      -2.02974747       0.00000000
Si      -1.11128752      -1.20037753       3.22482179       0.00000000
Si      -2.67761990      -1.97455979       1.63389843       0.00000000
Si      -1.76497265       0.58961330      -3.21248069       0.00000000
Si      -2.57132765       2.62226648      -0.54391315       0.00000000
