10
Lattice="16.290000149 0.0 0.0 0.0 16.290000149 0.0 0.0 0.0 29.1751946751" Properties=species:S:1:pos:R:3:initial_magmoms:R:1 pbc="T T T"
H       -1.13691169       0.05660775       0.99989227       0.00000000
Si       0.22882563      -2.13343616      -0.91070370       0.00000000
Si       2.06402447       0.69454045       0.90125094       0.00000000
Si      -0.21727602       1.51487227      -1.83873747       0.00000000
H       -0.44111691       0.99123022       2.62264577       0.00000000
H       -2.02357640       1.88659379       1.44892769       0.00000000
Si       2.35522451      -1.54829935      -1.91540988       0.00000000
H        2.45037440      -2.37151451       0.65690868       0.00000000
Si       3.32275278       0.45069543      -1.03811178       0.00000000
Si       1.73555291       2.81852841       1.83094769       0.00000000
