10
Lattice="16.290000149 0.0 0.0 0.0 16.290000149 0.0 0.0 0.0 29.1751946751" Properties=species:S:1:pos:R:3:initial_magmoms:R:1 pbc="T T T"
Si       1.34726446       1.28950012      -1.37158425       0.00000000
Si      -1.52430418       1.26446239       1.21806438       0.00000000
Si       1.03707028      -0.81961507       1.95266660       0.00000000
Si      -1.41289687      -1.39321855      -1.30039678       0.00000000
Si      -0.78908761      -2.10976679       2.60222314       0.00000000
Si      -2.44837073      -0.46511208       2.49862202       0.00000000
Si       2.60190398       2.60929639       0.09802865       0.00000000
Si      -0.07654671       2.65282490      -2.67072650       0.00000000
Si       2.71277372      -0.07944633      -2.71548124       0.00000000
Si      -0.07244163      -2.72534960      -2.70608683       0.00000000
