10
Lattice="16.290000149 0.0 0.0 0.0 16.290000149 0.0 0.0 0.0 29.1751946751" Properties=species:S:1:pos:R:3:initial_magmoms:R:1 pbc="T T T"
Si      -0.97860547       1.85890079      -0.89678713       0.00000000
Si      -1.76327849      -1.48610413       0.33356000       0.00000000
Si       0.38260323       0.64573561       2.22341241       0.00000000
Si       1.75650185      -0.97013467      -1.26316923       0.00000000
H       -0.38986857      -1.22179888      -2.57316464       0.00000000
Si       1.87092281      -1.22279257       2.57526526       0.00000000
Si       2.49365693      -2.29498409       0.52704989       0.00000000
Si      -2.46554039       0.84545101      -2.36663344       0.00000000
Si      -3.58083525      -0.59899960      -0.81465896       0.00000000
Si      -1.07790931      -3.53491537      -0.43459370       0.00000000
