10
Lattice="16.290000149 0.0 0.0 0.0 16.290000149 0.0 0.0 0.0 29.1751946751" Properties=species:S:1:pos:R:3:initial_magmoms:R:1 pbc="T T T"
Si      -1.49271787       1.26565156       1.28397114       0.00000000
Si      -1.42658047      -1.26925165      -1.40370614       0.00000000
Si       1.29604626       1.35769006      -1.44735223       0.00000000
Si       1.29052770      -1.35791812       1.49417842       0.00000000
H        1.45391509       1.25797897       2.92472574       0.00000000
Si      -2.88106572      -0.55530982       2.03689539       0.00000000
Si      -2.77314447      -2.28731150       0.23165105       0.00000000
Si       2.51231387      -2.63724677      -0.10526410       0.00000000
Si       2.61439678       0.32263974       2.63968409       0.00000000
Si       2.65203972       2.76936519      -0.13446847       0.00000000
