10
Lattice="16.290000149 0.0 0.0 0.0 16.290000149 0.0 0.0 0.0 29.1751946751" Properties=species:S:1:pos:R:3:initial_magmoms:R:1 pbc="T T T"
Si      -0.96635539       1.45547893       1.51468858       0.00000000
Si       1.56436129      -1.28063836       1.12715447       0.00000000
Si       1.62002422       1.02969091      -1.39259039       0.00000000
Si      -1.90027739      -1.50003208      -0.31853478       0.00000000
H       -0.38636622      -2.34738902      -2.02408748       0.00000000
H        0.76983283      -0.71734645      -3.14706990       0.00000000
H       -2.49870683      -1.59728338      -1.72008195       0.00000000
Si       0.17234820      -2.71645526       2.30425688       0.00000000
Si      -2.65346183       2.39037833       0.20653120       0.00000000
H       -2.12165849       2.64539828      -1.18133281       0.00000000
