10
Lattice="16.290000149 0.0 0.0 0.0 16.290000149 0.0 0.0 0.0 29.1751946751" Properties=species:S:1:pos:R:3:initial_magmoms:R:1 pbc="T T T"
Si      -1.35632170      -1.34962651      -1.35448759       0.00000000
Si      -1.34394130       1.33094188       1.38666783       0.00000000
Si       1.34056927       1.35319402      -1.38558835       0.00000000
Si       1.34521192      -1.38075670       1.35466264       0.00000000
Si       0.06856461      -2.70987410      -2.62489226       0.00000000
Si      -2.70692561       2.67053375       0.02278583       0.00000000
Si       2.70485190       2.68296302      -0.00636019       0.00000000
Si      -2.69586470      -0.06040332       2.71373073       0.00000000
Si       2.69517238      -0.03530043      -2.71559795       0.00000000
Si       2.69703107      -0.02805138       2.71603557       0.00000000
