10
Lattice="16.290000149 0.0 0.0 0.0 16.290000149 0.0 0.0 0.0 29.1751946751" Properties=species:S:1:pos:R:3:initial_magmoms:R:1 pbc="T T T"
Si       1.29218797       1.43715268       1.31407994       0.00000000
Si      -1.35508366       1.36603054      -1.33759515       0.00000000
Si      -1.30754944      -1.35000281       1.42021930       0.00000000
Si       1.42506550      -1.36219751      -1.29858791       0.00000000
Si       2.53306244       0.04667085       2.68545997       0.00000000
Si      -2.65199573      -2.69444747       0.03194684       0.00000000
Si       0.06343326      -2.70487307      -2.67632813       0.00000000
Si      -2.71085150      -0.00153126      -2.67533618       0.00000000
Si       0.01980864       2.70264134      -2.69946406       0.00000000
Si       2.75993328       0.00154755      -2.66815908       0.00000000
