10
Lattice="16.290000149 0.0 0.0 0.0 16.290000149 0.0 0.0 0.0 29.1751946751" Properties=species:S:1:pos:R:3:initial_magmoms:R:1 pbc="T T T"
Si       0.73715509      -1.32484942       1.79021912       0.00000000
Si      -1.75650185       0.97013467       1.26316923       0.00000000
Si       1.38834784       1.82096138      -0.75292425       0.00000000
Si       0.10792125      -1.73200169      -1.80524435       0.00000000
H       -2.14637042      -0.25166421      -1.30999542       0.00000000
Si       2.88106572       0.55530982      -2.03689539       0.00000000
Si       2.73377153      -2.20975155       0.81483401       0.00000000
Si      -0.77983489      -3.17365855       1.72253267       0.00000000
Si      -2.79005349       0.59010526      -2.38974020       0.00000000
Si       1.54351009      -3.35750261      -0.87834841       0.00000000
