10
Lattice="16.290000149 0.0 0.0 0.0 16.290000149 0.0 0.0 0.0 29.1751946751" Properties=species:S:1:pos:R:3:initial_magmoms:R:1 pbc="T T T"
Si      -0.65462995       0.42272550      -2.13163308       0.00000000
Si      -1.90703774      -0.79035823       1.12295908       0.00000000
Si       0.85799431       1.93631087       1.04073754       0.00000000
Si       1.70489513      -1.66866617      -0.12581774       0.00000000
H       -1.21192714      -2.61907364      -0.79961040       0.00000000
Si       2.17201088       0.67259782       2.51425701       0.00000000
Si      -0.65806714      -2.16106400       2.53605671       0.00000000
Si       3.43012017      -0.72734851       1.14882289       0.00000000
Si       0.83957032      -3.39689020       1.25610008       0.00000000
Si      -2.35639739       2.01960164      -2.14613316       0.00000000
