10
Lattice="16.290000149 0.0 0.0 0.0 16.290000149 0.0 0.0 0.0 29.1751946751" Properties=species:S:1:pos:R:3:initial_magmoms:R:1 pbc="T T T"
H       -1.19058724       0.50718915      -0.79516993       0.00000000
Si       1.33749046      -1.07582419      -1.61598486       0.00000000
Si       1.28115964       1.69324778       1.16610336       0.00000000
H       -1.76536361       0.62797951       1.54374708       0.00000000
Si      -0.68180167      -1.86000851       1.42465393       0.00000000
H       -0.54679014       2.16769403      -1.89411199       0.00000000
H        1.50464215      -1.00009198       2.55096232       0.00000000
Si      -3.07439544       1.08950779       0.93617365       0.00000000
H       -1.98922079       1.25856541      -2.44861574       0.00000000
Si       2.54387900       0.08969274       2.33182743       0.00000000
