10
Lattice="16.290000149 0.0 0.0 0.0 16.290000149 0.0 0.0 0.0 29.1751946751" Properties=species:S:1:pos:R:3:initial_magmoms:R:1 pbc="T T T"
Si       1.31401657      -1.26371305       1.47351946       0.00000000
Si      -0.85799431      -1.93631087      -1.04073754       0.00000000
Si      -1.43130457       1.37160172       1.28532779       0.00000000
Si       1.21660237       1.43483950      -1.44306931       0.00000000
Si       2.57212586      -2.66365937       0.10808534       0.00000000
Si       2.61319295       2.75612142      -0.07868842       0.00000000
Si      -0.05947479       2.77814550       2.59711164       0.00000000
Si      -0.09674631      -2.66820428       2.73114249       0.00000000
Si       2.75327067       0.16514802      -2.64558331       0.00000000
Si      -1.51262425      -1.51358536      -3.17237063       0.00000000
