10
Lattice="16.290000149 0.0 0.0 0.0 16.290000149 0.0 0.0 0.0 29.1751946751" Properties=species:S:1:pos:R:3:initial_magmoms:R:1 pbc="T T T"
Si      -1.34654093      -1.41069772       1.30856583       0.00000000
Si       1.33936244      -1.36155079      -1.37301384       0.00000000
Si      -1.43815589       1.35045730      -1.28674279       0.00000000
Si       1.38040021       1.36070371       1.35384573       0.00000000
Si      -2.58526512      -0.04328253       2.72435050       0.00000000
Si      -0.05964720       2.67718007      -2.67682411       0.00000000
Si       0.00098792       2.75614096       2.64948695       0.00000000
Si       2.71014152      -2.70352100      -0.01581296       0.00000000
Si       2.69927609      -0.01138671      -2.72700545       0.00000000
Si       2.71740686       2.71091666      -0.01575461       0.00000000
