10
Lattice="16.290000149 0.0 0.0 0.0 16.290000149 0.0 0.0 0.0 29.1751946751" Properties=species:S:1:pos:R:3:initial_magmoms:R:1 pbc="T T T"
Si       0.06968862       1.08092296       1.05366216       0.00000000
H        1.12728430       1.75918970      -1.95596340       0.00000000
H       -1.22598541      -2.15718698       1.71976103       0.00000000
Si      -2.47054142      -1.37894851      -1.05357463       0.00000000
Si      -1.56123361       0.41412438       2.60852498       0.00000000
Si      -0.47392497      -2.26385064      -2.02895974       0.00000000
Si       2.27089770       1.25592643       1.71147527       0.00000000
Si      -0.38631735       3.21237174       0.15378245       0.00000000
Si      -3.09327555      -0.30675699       0.99464074       0.00000000
Si       2.28776599       0.82385047      -2.24100505       0.00000000
