10
Lattice="16.290000149 0.0 0.0 0.0 16.290000149 0.0 0.0 0.0 29.1751946751" Properties=species:S:1:pos:R:3:initial_magmoms:R:1 pbc="T T T"
Si       1.31939227       1.32743953      -1.36643541       0.00000000
Si      -1.25810929       1.39994632       1.36543412       0.00000000
Si      -1.72522505      -0.94131766      -1.27464062       0.00000000
Si       1.45026288      -1.38552967       1.22606130       0.00000000
Si      -3.43012017       0.72734851      -1.14882289       0.00000000
Si      -2.57212586       2.66365937      -0.10808534       0.00000000
Si      -2.59054985      -2.66954169       0.10727719       0.00000000
Si       2.58303202      -0.10391391      -2.68814117       0.00000000
Si      -2.66887217      -0.00454491       2.62305715       0.00000000
Si       2.81244572       0.00928530       2.54504267       0.00000000
