10
Lattice="16.290000149 0.0 0.0 0.0 16.290000149 0.0 0.0 0.0 29.1751946751" Properties=species:S:1:pos:R:3:initial_magmoms:R:1 pbc="T T T"
Si      -1.23131224       1.20150040       1.59622742       0.00000000
Si      -1.94158883      -0.85169008      -1.06311813       0.00000000
Si       1.30116376      -1.53029890       1.31752845       0.00000000
Si       1.47808782       1.30605321      -1.37345730       0.00000000
H       -0.85744045      -2.56440440      -1.85099689       0.00000000
Si      -2.64831419       2.54436607       0.34177865       0.00000000
Si       2.64784504      -0.28709496      -2.66034596       0.00000000
Si       2.82441398       2.51991153       0.10915899       0.00000000
Si      -3.68725782       0.69045166      -0.61068642       0.00000000
Si       2.69157555      -0.24312825       2.75287801       0.00000000
