10
Lattice="16.290000149 0.0 0.0 0.0 16.290000149 0.0 0.0 0.0 29.1751946751" Properties=species:S:1:pos:R:3:initial_magmoms:R:1 pbc="T T T"
Si      -1.39194793       1.35303112       1.31419664       0.00000000
Si       1.34016202       1.34765542      -1.37327641       0.00000000
Si      -1.39914811      -1.37158543      -1.31302964       0.00000000
Si       1.35101116      -1.31185000       1.42512073       0.00000000
Si       2.58572801      -2.73985422       0.00962781       0.00000000
Si       2.68363091       2.67431303       0.03337642       0.00000000
Si      -2.89352757      -0.00780291       2.47598207       0.00000000
Si      -0.05447376       2.64253124       2.74474396       0.00000000
Si       2.66502773      -0.02251278      -2.74599850       0.00000000
Si      -2.73318510       2.69961140      -0.06923274       0.00000000
