10
Lattice="16.290000149 0.0 0.0 0.0 16.290000149 0.0 0.0 0.0 29.1751946751" Properties=species:S:1:pos:R:3:initial_magmoms:R:1 pbc="T T T"
H        1.34915410       0.60867586       0.26476489       0.00000000
Si      -0.48653343       0.41269086      -2.20911657       0.00000000
Si      -1.38122911       1.33406956       1.32221982       0.00000000
Si      -0.48223287      -2.20071386       0.61947691       0.00000000
H        2.23581881      -1.22131018      -0.18427053       0.00000000
H        2.93161359      -0.28668771       1.43848297       0.00000000
Si       0.60261598      -2.13612401       2.71174682       0.00000000
Si       1.33962445       1.70284259      -2.85867310       0.00000000
Si       0.15555321       2.64616391       2.51262612       0.00000000
Si      -2.80556157      -2.05019426       1.18442538       0.00000000
