10
Lattice="16.290000149 0.0 0.0 0.0 16.290000149 0.0 0.0 0.0 29.1751946751" Properties=species:S:1:pos:R:3:initial_magmoms:R:1 pbc="T T T"
Si      -1.53678232      -1.31209435      -1.19040629       0.00000000
Si      -1.41022531       1.17651268       1.46981713       0.00000000
Si       1.38947185      -1.31551525       1.42835918       0.00000000
Si       0.78240871       1.49369039      -1.71316743       0.00000000
H        1.19360089      -2.03748806      -2.24786122       0.00000000
Si      -1.28495521       2.21880065      -2.55956900       0.00000000
Si      -0.15555321      -2.64616391      -2.51262612       0.00000000
Si      -2.57216007       0.23211621      -2.67203938       0.00000000
Si       0.03634299       2.61803760       2.74418964       0.00000000
H       -0.60202954       3.77527269       0.01280791       0.00000000
