10
Lattice="16.290000149 0.0 0.0 0.0 16.290000149 0.0 0.0 0.0 29.1751946751" Properties=species:S:1:pos:R:3:initial_magmoms:R:1 pbc="T T T"
Si       1.32098869      -1.33633387      -1.40659449       0.00000000
Si       1.39225907       1.37534842       1.31162923       0.00000000
Si      -1.33955929       1.36611199      -1.37523115       0.00000000
Si      -1.35698959      -1.34816041       1.39148173       0.00000000
Si      -0.00842193       2.69229719       2.63043555       0.00000000
Si       2.65046447      -2.69578325      -0.04154548       0.00000000
Si      -2.70045848      -2.67481802      -0.01517110       0.00000000
Si      -2.72153774       2.70989039      -0.03781105       0.00000000
Si       2.67152744       0.02935458      -2.77041814       0.00000000
Si       0.03301739      -2.70738173       2.73957996       0.00000000
