10
Lattice="10.86 0.0 0.0 0.0 10.86 0.0 0.0 0.0 10.86" Properties=species:S:1:pos:R:3:initial_magmoms:R:1 pbc="T T T"
Si      -1.47092184      -1.13490258       1.49341290       0.00000000
Si      -1.47092184       1.58009742      -1.22158710       0.00000000
Si       1.24407816       1.58009742       1.49341290       0.00000000
Si       1.46224470      -1.65813738      -1.47504864       0.00000000
Si       2.38586598       0.17298894      -2.15373348       0.00000000
Si      -2.82842184      -2.49240258       0.13591290       0.00000000
Si       2.44430364       0.30985752       2.92277352       0.00000000
Si      -2.82842184       0.22259742      -2.57908710       0.00000000
Si      -0.07130676      -2.61734688       2.85948144       0.00000000
Si      -0.11342184       2.93759742      -2.57908710       0.00000000
