10
Lattice="10.86 0.0 0.0 0.0 10.86 0.0 0.0 0.0 10.86" Properties=species:S:1:pos:R:3:initial_magmoms:R:1 pbc="T T T"
Si       1.32424668      -1.26854574      -1.37713488       0.00000000
Si       1.32424668       1.44645426       1.33786512       0.00000000
Si      -1.39075332       1.44645426      -1.37713488       0.00000000
Si       2.68174668      -2.62604574      -0.01963488       0.00000000
Si      -2.96396550       0.03934578      -2.30928126       0.00000000
Si       2.68174668       0.08895426       2.69536512       0.00000000
Si       2.68174668       0.08895426      -2.73463488       0.00000000
Si       2.68174668       2.80395426      -0.01963488       0.00000000
Si      -0.03325332       2.80395426       2.69536512       0.00000000
Si      -0.03325332       2.80395426      -2.73463488       0.00000000
