10
Lattice="16.2900001489832 0.0 0.0 0.0 16.2900001489832 0.0 0.0 0.0 29.27589945601073" Properties=species:S:1:pos:R:3:initial_magmoms:R:1 pbc="T T T"
Si       1.25033896       1.04720266      -1.68640891       0.00000000
Si       1.74276286      -0.86030749       1.53259334       0.00000000
Si      -1.39378870       1.70526980       1.13666607       0.00000000
Si      -1.45709164      -1.50338782      -1.42602906       0.00000000
H        2.13850887       1.99397747      -0.92927560       0.00000000
H       -0.62817499      -3.39560003       0.46908774       0.00000000
Si      -2.42750324       0.13916547       2.56767204       0.00000000
Si      -0.06485049       2.42491313      -3.02232676       0.00000000
Si       0.71115625      -2.35634852       3.05075365       0.00000000
Si       3.13501053      -2.37490283       0.28722585       0.00000000
