10
Lattice="16.2900001489832 0.0 0.0 0.0 16.2900001489832 0.0 0.0 0.0 29.27589945601073" Properties=species:S:1:pos:R:3:initial_magmoms:R:1 pbc="T T T"
Si       1.36979353       1.33735037       1.41168680       0.00000000
Si       1.44502075      -1.38792430      -1.29579230       0.00000000
Si      -1.34343631      -1.35755974       1.46037262       0.00000000
Si      -1.31297401       1.40502229      -1.48294727       0.00000000
Si       0.07504803      -2.91879336      -2.47888672       0.00000000
Si      -2.71637381      -0.05620050      -2.70189911       0.00000000
Si      -2.72217305       2.69829191      -0.02405601       0.00000000
Si       2.70798446       2.73470006       0.00778739       0.00000000
Si       2.72293868      -2.74936107       0.14559490       0.00000000
Si      -2.70539435      -2.76908826       0.16663842       0.00000000
