10
Lattice="16.2900001489832 0.0 0.0 0.0 16.2900001489832 0.0 0.0 0.0 29.27589945601073" Properties=species:S:1:pos:R:3:initial_magmoms:R:1 pbc="T T T"
H       -0.46393920       0.44380476       0.43381028       0.00000000
H        0.85592548       1.05759568      -1.30836922       0.00000000
H        1.48159180       1.27638667       0.05922514       0.00000000
Si       0.53607132       0.57552571      -2.70532732       0.00000000
H       -1.34118829      -2.70048292       0.28687454       0.00000000
Si      -1.23549877      -1.18633555      -2.61688482       0.00000000
Si       2.12302685       2.20692035       1.06312501       0.00000000
Si      -2.38900997      -2.18821943      -0.69099905       0.00000000
H       -2.21793239       2.60503166      -0.01127122       0.00000000
H       -1.71260030       0.15242553       2.98046222       0.00000000
