10
Lattice="16.2900001489832 0.0 0.0 0.0 16.2900001489832 0.0 0.0 0.0 29.27589945601073" Properties=species:S:1:pos:R:3:initial_magmoms:R:1 pbc="T T T"
Si       1.97617250      -0.98663644      -0.85760820       0.00000000
Si      -0.03715749       0.05204655       2.37225541       0.00000000
Si      -2.10812150      -0.93877642      -0.55524671       0.00000000
Si       0.12900051       2.46708794      -0.16496969       0.00000000
H        0.58502278      -2.81986419       0.83427531       0.00000000
Si       0.55315954      -2.20213109      -2.30644319       0.00000000
H       -2.12423231      -2.44141490      -0.38527084       0.00000000
Si       0.09428652       2.46187514       2.21372641       0.00000000
H        0.52323480      -3.52349445       0.51742225       0.00000000
Si      -2.15625845      -0.87026068       2.83727380       0.00000000
