10
Lattice="16.2900001489832 0.0 0.0 0.0 16.2900001489832 0.0 0.0 0.0 29.27589945601073" Properties=species:S:1:pos:R:3:initial_magmoms:R:1 pbc="T T T"
H        0.06825510      -1.49752342       0.19784653       0.00000000
Si       1.49051872       0.71071642       1.74873730       0.00000000
Si      -1.94126303       0.98321554       1.14088180       0.00000000
Si       1.11127123       0.16680960      -2.19598522       0.00000000
H       -1.09932414      -1.92189422      -1.69838276       0.00000000
Si       0.37867734      -0.99316873       3.03769660       0.00000000
Si      -1.77869925       3.05597145      -0.05524362       0.00000000
Si       3.17739711       1.15039981      -1.35143407       0.00000000
Si       3.59230341       0.31506489       0.82777606       0.00000000
Si      -1.35520258       0.52815438       3.46773029       0.00000000
