10
Lattice="16.2900001489832 0.0 0.0 0.0 16.2900001489832 0.0 0.0 0.0 29.27589945601073" Properties=species:S:1:pos:R:3:initial_magmoms:R:1 pbc="T T T"
Si      -0.83724085      -1.82418680       1.26119053       0.00000000
Si       0.39776922      -0.62108884      -2.25682112       0.00000000
Si       1.96050152       0.84903481       1.14447337       0.00000000
Si      -1.68189365       1.80872759       0.27437900       0.00000000
Si       0.85305844       1.63890433      -2.97715463       0.00000000
Si       0.77227633       2.13939830       2.74582408       0.00000000
Si      -2.00906201      -0.62297848       2.90677420       0.00000000
Si      -3.29647049       0.70630183       1.53574577       0.00000000
Si      -2.64517022      -2.66927942      -0.05100213       0.00000000
Si      -0.63781867       3.48540843       1.48020646       0.00000000
