10
Lattice="16.2900001489832 0.0 0.0 0.0 16.2900001489832 0.0 0.0 0.0 29.27589945601073" Properties=species:S:1:pos:R:3:initial_magmoms:R:1 pbc="T T T"
Si      -1.62631216      -1.53608185       0.73819180       0.00000000
Si      -0.69224356       2.27711396       0.10925766       0.00000000
Si       1.59917302       0.36950607       1.74903006       0.00000000
Si       1.06609906      -1.10889289      -1.92720319       0.00000000
H       -1.96890716       0.42326307      -2.45762393       0.00000000
H       -2.03069513      -0.28036719      -2.77447699       0.00000000
Si       1.41429781       3.12750084      -0.53926207       0.00000000
Si       1.03276972      -3.06448623       1.29080368       0.00000000
Si       2.76923487      -1.58928499       1.81721363       0.00000000
Si       2.92796463       2.07813161       0.89613528       0.00000000
