10
Lattice="16.2900001489832 0.0 0.0 0.0 16.2900001489832 0.0 0.0 0.0 29.27589945601073" Properties=species:S:1:pos:R:3:initial_magmoms:R:1 pbc="T T T"
Si       0.91123003      -0.88951546      -1.91590269       0.00000000
Si      -2.33777792       0.07192035       0.23622723       0.00000000
Si       0.87579928      -1.42107445       1.69246902       0.00000000
Si       0.29962197       2.35682745       0.23757392       0.00000000
Si      -0.82912843       2.50757022       2.31648482       0.00000000
Si      -2.41471559       0.72866800       2.48654852       0.00000000
Si       2.03774870       0.25314660       2.91497203       0.00000000
H       -1.26781813      -2.99991756      -1.48900152       0.00000000
Si       2.48349197      -2.37998531      -0.99991835       0.00000000
Si      -1.19772226       3.06531702      -1.47688130       0.00000000
