10
Lattice="16.2900001489832 0.0 0.0 0.0 16.2900001489832 0.0 0.0 0.0 29.27589945601073" Properties=species:S:1:pos:R:3:initial_magmoms:R:1 pbc="T T T"
Si      -0.79159627       1.50946399       1.57068128       0.00000000
Si      -0.28817010      -2.15440139       0.86709359       0.00000000
Si       1.77165155       1.07453728      -1.14296039       0.00000000
Si      -2.15554169      -0.39369347      -0.92772398       0.00000000
H        2.60056820      -0.81767493       0.75215641       0.00000000
Si      -2.74471842      -1.99441730       0.83035234       0.00000000
Si       0.30967290       2.39479292      -2.54313883       0.00000000
Si      -2.40831362       2.77535991       0.35581928       0.00000000
Si      -1.82024462      -1.03925314      -3.10397724       0.00000000
Si       0.15936507      -3.70314057      -0.85918910       0.00000000
