10
Lattice="16.2900001489832 0.0 0.0 0.0 16.2900001489832 0.0 0.0 0.0 29.27589945601073" Properties=species:S:1:pos:R:3:initial_magmoms:R:1 pbc="T T T"
Si      -2.02331576      -0.30874437      -1.08136390       0.00000000
Si       0.14576292       1.94878901       1.30825212       0.00000000
Si       0.14110398      -1.56198295       1.84596256       0.00000000
Si       1.18078066      -0.11909619      -2.13450583       0.00000000
Si       2.31798557       1.30104973       1.94266086       0.00000000
Si      -1.68326201      -2.47673162      -1.87623384       0.00000000
Si       0.76318651      -2.35436114      -2.77690689       0.00000000
Si      -2.23818086       1.43130457      -2.64446272       0.00000000
Si       3.74680918       0.23403843       0.33863433       0.00000000
Si       1.69593563      -0.56184211       3.35457894       0.00000000
