10
Lattice="16.2900001489832 0.0 0.0 0.0 16.2900001489832 0.0 0.0 0.0 29.27589945601073" Properties=species:S:1:pos:R:3:initial_magmoms:R:1 pbc="T T T"
Si       2.04962411       0.04914693       1.20010695       0.00000000
Si       0.30053421       1.72401959      -1.66764306       0.00000000
Si      -0.21584250      -2.38570310      -0.49672419       0.00000000
Si      -1.65421694       0.87568525       1.59498028       0.00000000
H        2.19805859      -1.15044868      -2.26654014       0.00000000
Si       1.77236831       1.87533740       2.67107451       0.00000000
Si      -0.30762036       1.17072973       3.54964426       0.00000000
Si      -1.39580866      -3.28842975       1.32956497       0.00000000
Si      -1.14683230       3.55723104      -0.88565451       0.00000000
Si       2.26448921      -1.69090202       2.76320577       0.00000000
