10
Lattice="16.2900001489832 0.0 0.0 0.0 16.2900001489832 0.0 0.0 0.0 29.27589945601073" Properties=species:S:1:pos:R:3:initial_magmoms:R:1 pbc="T T T"
Si      -1.36195804      -1.41152851      -1.29373420       0.00000000
Si       1.28220220      -1.44945163       1.37573307       0.00000000
Si      -1.37671678       1.36715455       1.37034630       0.00000000
Si       1.34343631       1.35755974      -1.46037262       0.00000000
Si       2.60954399      -0.08993709       2.70081883       0.00000000
Si      -2.68164353      -0.04541652      -2.70254903       0.00000000
Si       2.71322984       2.69491011      -0.04868582       0.00000000
Si      -2.69467553      -2.73302220       0.14149042       0.00000000
Si       0.00144981       2.70124692       2.75146613       0.00000000
Si       2.71614575      -2.74945881       0.03864419       0.00000000
