10
Lattice="16.2900001489832 0.0 0.0 0.0 16.2900001489832 0.0 0.0 0.0 29.27589945601073" Properties=species:S:1:pos:R:3:initial_magmoms:R:1 pbc="T T T"
Si       1.32734179       1.35951454       1.32508576       0.00000000
Si       1.43394355      -1.30000717      -1.33708888       0.00000000
Si      -1.28220220       1.44945163      -1.37573307       0.00000000
Si      -1.25607304      -1.28909287       1.58286006       0.00000000
Si      -2.58481577      -2.64676664       0.16046120       0.00000000
Si      -2.64416024       0.03792312      -2.66946727       0.00000000
Si       0.13950756      -2.72082098      -2.69117827       0.00000000
Si       2.74626597       0.06522516       2.67959380       0.00000000
Si       0.01788642       2.71059086       2.73053387       0.00000000
Si       2.84799702      -2.59068017       0.03802939       0.00000000
