10
Lattice="16.2900001489832 0.0 0.0 0.0 16.2900001489832 0.0 0.0 0.0 29.27589945601073" Properties=species:S:1:pos:R:3:initial_magmoms:R:1 pbc="T T T"
Si       1.12741788       1.38956959      -1.52386912       0.00000000
Si       1.56213282      -1.04948326       1.44070214       0.00000000
Si      -1.13953764      -2.07611165      -0.66535337       0.00000000
Si      -1.44443106       1.85308526       0.93176405       0.00000000
Si      -0.05244403      -2.15190902       2.70206891       0.00000000
Si      -0.85883813       1.89332156      -2.76607481       0.00000000
Si      -2.94972481       0.62587810      -2.13175389       0.00000000
Si      -3.41358256      -1.31100292      -0.70449524       0.00000000
Si       2.41058119      -0.04186530      -2.88443727       0.00000000
Si       2.60620780       0.62719759       2.64652960       0.00000000
