10
Lattice="16.2900001489832 0.0 0.0 0.0 16.2900001489832 0.0 0.0 0.0 29.27589945601073" Properties=species:S:1:pos:R:3:initial_magmoms:R:1 pbc="T T T"
Si      -1.49375066      -1.62846244      -0.75605010       0.00000000
Si       1.28384749      -1.47172006       1.47857930       0.00000000
Si       1.91050751       0.45745578      -1.49286594       0.00000000
Si      -1.89902143       1.42156478       0.69433651       0.00000000
Si       3.07705071      -1.07944057      -0.02874893       0.00000000
H        2.80891731       1.24340594       1.30869126       0.00000000
H        0.15737769       2.00229351      -2.72254155       0.00000000
Si      -2.59945885      -2.35431227       1.20054608       0.00000000
Si       0.54693676      -0.72674578       3.63334405       0.00000000
Si      -3.21742164      -0.19932444       1.99099537       0.00000000
