10
Lattice="16.2900001489832 0.0 0.0 0.0 16.2900001489832 0.0 0.0 0.0 29.27589945601073" Properties=species:S:1:pos:R:3:initial_magmoms:R:1 pbc="T T T"
Si       2.16409394       0.66297043       0.70042589       0.00000000
Si       0.03471399       0.00521280      -2.37869611       0.00000000
Si      -1.26741088       1.76715551       0.99134051       0.00000000
Si      -0.13144401      -2.40982859       0.15852900       0.00000000
H       -1.83572012       1.18113904       2.25567878       0.00000000
H       -0.79423525      -0.65950066       2.96661472       0.00000000
Si      -0.09428652      -2.46187514      -2.21372641       0.00000000
H       -3.43163514      -0.03930777       1.28187453       0.00000000
Si       0.34332804       3.29154114       1.82877761       0.00000000
Si       1.91558999       1.80107129       2.74476195       0.00000000
