10
Lattice="16.2900001489832 0.0 0.0 0.0 16.2900001489832 0.0 0.0 0.0 29.27589945601073" Properties=species:S:1:pos:R:3:initial_magmoms:R:1 pbc="T T T"
Si       0.97779097      -2.07151787       0.36035705       0.00000000
Si      -0.76527163       0.27986220       2.20485582       0.00000000
Si       1.77360146       1.52995681      -0.34299644       0.00000000
Si      -0.84396862       0.77587642      -2.09431002       0.00000000
H        1.89383795      -1.85828177       1.55159340       0.00000000
Si       1.18754101       1.98501797      -2.66984493       0.00000000
Si      -0.46138167       2.57437388       2.39807675       0.00000000
Si      -2.60053562       2.21473955      -1.06245167       0.00000000
Si       3.50748138       0.00863370      -0.77303013       0.00000000
Si       1.87311870       2.51273252       1.87438946       0.00000000
