10
Lattice="16.2900001489832 0.0 0.0 0.0 16.2900001489832 0.0 0.0 0.0 29.27589945601073" Properties=species:S:1:pos:R:3:initial_magmoms:R:1 pbc="T T T"
Si       1.45914418      -1.35372019      -1.30999111       0.00000000
Si      -1.33819093      -1.39734970       1.40389941       0.00000000
Si       1.34783461       1.32760243       1.46262686       0.00000000
Si      -1.39258324       1.35249355      -1.41085829       0.00000000
Si       2.66041766      -2.70168023       0.22172395       0.00000000
Si       0.02857266       2.82152577      -2.59989137       0.00000000
Si      -2.76613977       2.66131361       0.03499641       0.00000000
Si      -2.70798446      -2.73470006      -0.00778739       0.00000000
Si       2.77923693       2.68079645       0.14704406       0.00000000
Si       0.15583014      -2.77224852      -2.69545841       0.00000000
