10
Lattice="16.2900001489832 0.0 0.0 0.0 16.2900001489832 0.0 0.0 0.0 29.27589945601073" Properties=species:S:1:pos:R:3:initial_magmoms:R:1 pbc="T T T"
Si       1.42897510      -1.27518121       1.38846808       0.00000000
Si      -1.38062638       1.34680834       1.37810442       0.00000000
Si       1.35658234       1.38960217      -1.38041721       0.00000000
Si      -1.32743953      -1.30051216      -1.49245608       0.00000000
Si       2.73978255      -2.57511508      -0.08226528       0.00000000
Si      -2.69498504      -2.64605966      -0.10237782       0.00000000
Si      -2.71104698       2.65458584      -0.03630212       0.00000000
Si      -0.05271444       2.68788260      -2.76408405       0.00000000
Si       2.73206108       2.78984172      -0.01566261       0.00000000
Si       2.70282053       0.07255566      -2.84380232       0.00000000
