10
Lattice="16.2900001489832 0.0 0.0 0.0 16.2900001489832 0.0 0.0 0.0 29.27589945601073" Properties=species:S:1:pos:R:3:initial_magmoms:R:1 pbc="T T T"
Si      -0.33529707       0.64555967       2.17625326       0.00000000
Si      -1.87600529      -0.86827330      -1.11090328       0.00000000
Si       0.94931605       1.94271284      -0.97485818       0.00000000
Si       1.67422106      -1.70515577       0.10934548       0.00000000
Si       2.26012349       0.64277897      -2.44559154       0.00000000
Si      -0.56654992      -2.21934962      -2.51635139       0.00000000
Si       3.53168832      -0.70908905      -0.99444375       0.00000000
Si       1.82024462       1.03925314       3.10397724       0.00000000
Si       0.85237426      -3.51363900      -1.16184335       0.00000000
Si      -1.96494869       2.32626089       2.27707946       0.00000000
