10
Lattice="16.2900001489832 0.0 0.0 0.0 16.2900001489832 0.0 0.0 0.0 29.27589945601073" Properties=species:S:1:pos:R:3:initial_magmoms:R:1 pbc="T T T"
Si      -0.72169588      -1.01680552      -2.00074424       0.00000000
Si      -2.16609761       0.91391788       0.41671315       0.00000000
Si       1.68888206       1.37588599      -0.99177965       0.00000000
Si       1.26223066      -0.93325411       1.84950495       0.00000000
H        2.60492904       1.58912209       0.19945670       0.00000000
Si       1.31321836      -1.82301392      -2.88121692       0.00000000
Si      -3.17322687      -0.92753632       1.65798201       0.00000000
Si       3.18780968      -1.81798031       0.79618736       0.00000000
Si       0.71109109       3.44740386      -1.35213669       0.00000000
Si      -0.05418054       3.72726606       0.85271912       0.00000000
