10
Lattice="16.2900001489832 0.0 0.0 0.0 16.2900001489832 0.0 0.0 0.0 29.27589945601073" Properties=species:S:1:pos:R:3:initial_magmoms:R:1 pbc="T T T"
Si       0.80658307      -0.86683978      -0.96341130       0.00000000
H       -0.46314099       2.09530127       1.35793332       0.00000000
Si      -1.90578341       1.70421095       1.14904978       0.00000000
Si      -2.30521421      -0.53309025       1.99626503       0.00000000
Si       2.12177252      -2.24455025       0.37250654       0.00000000
Si       2.21631774       0.57977740      -2.17189115       0.00000000
Si      -0.65231677      -2.22467645      -2.23184820       0.00000000
H        3.00994242      -1.29777544       1.12963986       0.00000000
Si      -2.44447742       2.31456467      -1.10039323       0.00000000
Si      -0.52235514      -1.58648311       3.19558153       0.00000000
