10
Lattice="16.2900001489832 0.0 0.0 0.0 16.2900001489832 0.0 0.0 0.0 29.27589945601073" Properties=species:S:1:pos:R:3:initial_magmoms:R:1 pbc="T T T"
Si      -1.33983622       0.07840377       0.72864786       0.00000000
Si       1.31606911      -0.85898800      -2.37175772       0.00000000
Si      -0.78372820       1.64002835       2.46268866       0.00000000
Si      -2.82967077       0.71180785      -1.02266572       0.00000000
Si      -1.81027514      -2.15643764       1.38173463       0.00000000
Si       0.61880824      -2.88976458      -1.27300394       0.00000000
Si       0.31496715      -3.05049801       0.99119413       0.00000000
Si       3.07568235       0.19381842      -1.17683261       0.00000000
Si      -0.12393432       3.34772535      -0.98390443       0.00000000
Si      -1.49695327       2.06627249      -2.39582251       0.00000000
