10
Lattice="16.2900001489832 0.0 0.0 0.0 16.2900001489832 0.0 0.0 0.0 29.27589945601073" Properties=species:S:1:pos:R:3:initial_magmoms:R:1 pbc="T T T"
Si       1.21393081       1.82089622       0.85453423       0.00000000
Si      -0.60474997       0.78009553      -2.13825314       0.00000000
Si      -1.62559540       0.12968469       1.70836584       0.00000000
Si       1.58676591      -1.78209344      -0.04010798       0.00000000
H        0.60505948      -1.70440643       2.35840791       0.00000000
Si      -0.17122419      -0.81314794       3.31707651       0.00000000
Si       1.95314821      -1.73910413      -2.43563773       0.00000000
Si       3.43712487      -0.59056138       0.97711242       0.00000000
Si      -0.27174978       3.52500779       1.09617750       0.00000000
Si      -2.94174597       1.25499790      -1.89622928       0.00000000
