10
Lattice="16.2900001489832 0.0 0.0 0.0 16.2900001489832 0.0 0.0 0.0 29.27589945601073" Properties=species:S:1:pos:R:3:initial_magmoms:R:1 pbc="T T T"
Si       2.07998867       0.70460767      -0.87856974       0.00000000
Si      -1.34659657      -0.29504448      -1.95466398       0.00000000
Si       0.68740543      -2.27760266       0.41486877       0.00000000
Si      -0.13258431       0.39322431       2.38162370       0.00000000
Si       0.24013089       2.39838161      -0.55152867       0.00000000
Si       1.35931906      -1.44298450       2.55133609       0.00000000
Si       2.35724447      -1.12158280      -2.34953731       0.00000000
Si      -1.66019537       2.99879355       0.94344514       0.00000000
Si      -1.33669225      -3.32105862      -0.17574322       0.00000000
Si      -2.90895420      -1.83058877      -1.09172757       0.00000000
