10
Lattice="16.2900001489832 0.0 0.0 0.0 16.2900001489832 0.0 0.0 0.0 29.27589945601073" Properties=species:S:1:pos:R:3:initial_magmoms:R:1 pbc="T T T"
H        0.95465917      -0.87215032      -0.78709307       0.00000000
Si       1.35237952       1.23864274       1.48163983       0.00000000
Si      -1.42115590      -1.46903221       1.18903307       0.00000000
Si      -1.20969541       1.36451557      -1.53968861       0.00000000
H        0.90319906       0.34754715      -2.99171468       0.00000000
Si       2.37845405       0.05391990      -2.78406072       0.00000000
Si      -2.69998607       2.55676439      -0.09963640       0.00000000
Si      -0.04619844       2.50512509       2.86876123       0.00000000
Si       2.46150047       2.90002728       0.26797288       0.00000000
Si      -0.02857266      -2.82152577       2.59989137       0.00000000
