10
Lattice="16.2900001489832 0.0 0.0 0.0 16.2900001489832 0.0 0.0 0.0 29.27589945601073" Properties=species:S:1:pos:R:3:initial_magmoms:R:1 pbc="T T T"
Si       1.53684748       1.21555981      -1.27616573       0.00000000
Si      -1.20819673      -1.66412126      -1.14550739       0.00000000
Si       1.32137965      -1.23706261       1.63988951       0.00000000
Si      -1.74461015       1.72129916      -0.01030512       0.00000000
Si      -2.04845123       1.56056572       2.25389295       0.00000000
Si      -2.53861733      -0.35634375      -2.55991392       0.00000000
Si       0.21040164       2.52519437      -2.67122089       0.00000000
Si       2.38516553       2.99467218       0.06745167       0.00000000
Si       2.90449074      -0.22108788      -2.53927442       0.00000000
Si       0.17242965      -3.01092960      -2.52361181       0.00000000
