10
Lattice="16.2900001489832 0.0 0.0 0.0 16.2900001489832 0.0 0.0 0.0 29.27589945601073" Properties=species:S:1:pos:R:3:initial_magmoms:R:1 pbc="T T T"
Si       0.91917303       0.23021028      -2.13438873       0.00000000
Si       1.33647397       0.59795818       1.86469914       0.00000000
Si      -1.78258865       1.36204927      -0.77062950       0.00000000
Si       0.03682680      -2.36418401       0.21131344       0.00000000
Si       1.99388950      -2.85615831      -1.19764777       0.00000000
Si      -2.83909290       2.20605698       1.10598493       0.00000000
Si       3.00500981      -0.83399914      -2.11167063       0.00000000
Si       0.38402535      -2.81711118       2.52249932       0.00000000
Si      -2.86605285       0.07343532      -2.50180126       0.00000000
Si      -0.75934858      -0.30657780      -3.75401931       0.00000000
