10
Lattice="16.2900001489832 0.0 0.0 0.0 16.2900001489832 0.0 0.0 0.0 29.27589945601073" Properties=species:S:1:pos:R:3:initial_magmoms:R:1 pbc="T T T"
Si       0.88746292      -2.14218389      -0.32941242       0.00000000
Si       0.54128412       0.79684165      -2.13957056       0.00000000
Si       1.42301296       1.21549465       1.44883499       0.00000000
H       -0.02992473      -1.32136336       2.82386543       0.00000000
H       -0.10015092      -0.13369203      -3.14347043       0.00000000
H        0.03186324      -0.61773310       3.14071849       0.00000000
Si      -0.55315954       2.20213109       2.30644319       0.00000000
H       -2.67739184      -0.23928381       1.92117235       0.00000000
Si      -2.66128103       1.26335467       1.75119648       0.00000000
Si       2.86515039      -0.57425509       1.93481492       0.00000000
