10
Lattice="16.2900001489832 0.0 0.0 0.0 16.2900001489832 0.0 0.0 0.0 29.27589945601073" Properties=species:S:1:pos:R:3:initial_magmoms:R:1 pbc="T T T"
Si       1.28795257       1.36875097      -1.37854355       0.00000000
Si      -1.47942523       1.28304928       1.27856636       0.00000000
Si       1.25278246      -1.31222467       1.52407405       0.00000000
Si      -1.37769418      -1.37285605      -1.36299805       0.00000000
Si      -2.27162423      -0.45960606       2.68656147       0.00000000
Si      -0.59872267      -2.26981604       2.66814692       0.00000000
Si       2.57054573       2.71422353       0.03838070       0.00000000
Si       2.64186335      -2.71441901       0.18915159       0.00000000
Si       2.73533538       0.01058850      -2.63363064       0.00000000
Si      -0.14664258       2.67216275      -2.69420248       0.00000000
