10
Lattice="16.2900001489832 0.0 0.0 0.0 16.2900001489832 0.0 0.0 0.0 29.27589945601073" Properties=species:S:1:pos:R:3:initial_magmoms:R:1 pbc="T T T"
Si      -1.75961324      -1.05280642      -1.19492511       0.00000000
Si       0.79219900       1.74265535      -1.40799511       0.00000000
Si       0.14055012       0.92854630       2.19179876       0.00000000
Si       1.67290157      -1.81020998      -0.01841454       0.00000000
H       -3.07568235      -0.19381842       1.17683261       0.00000000
Si       2.27162423       0.45960606      -2.68656147       0.00000000
Si      -0.50186232      -2.27968778      -2.75708711       0.00000000
Si       0.74314981      -0.98072317       3.39863917       0.00000000
Si       1.91943443       2.59240691       1.99863638       0.00000000
Si       3.52440669      -0.85261861      -1.16248742       0.00000000
