10
Lattice="16.2900001489832 0.0 0.0 0.0 16.2900001489832 0.0 0.0 0.0 29.27589945601073" Properties=species:S:1:pos:R:3:initial_magmoms:R:1 pbc="T T T"
Si       2.10782828      -1.01999347       0.45887045       0.00000000
Si       0.61628329      -0.36571865      -2.27804556       0.00000000
Si      -1.63590697      -1.73977202       0.26825507       0.00000000
Si       0.42135714       1.77344345       1.62498808       0.00000000
H       -0.73749718      -0.95382186       3.06981227       0.00000000
Si      -0.16068456       0.39275190       3.42970090       0.00000000
H       -2.04784850       2.50554863      -1.24829508       0.00000000
H       -3.38903679      -0.19493429      -0.96142054       0.00000000
Si       2.74466955      -1.88011037      -1.67923632       0.00000000
Si      -0.46936377      -3.27666837       1.73237207       0.00000000
