10
Lattice="16.2900001489832 0.0 0.0 0.0 16.2900001489832 0.0 0.0 0.0 29.27589945601073" Properties=species:S:1:pos:R:3:initial_magmoms:R:1 pbc="T T T"
Si      -1.35022924      -1.35765748       1.35342190       0.00000000
Si      -1.27791793       1.36143676      -1.44138720       0.00000000
Si       1.29487582       1.39668832       1.39733575       0.00000000
Si       1.42933348      -1.45424089      -1.21155090       0.00000000
Si      -2.64789065      -0.16943229      -2.62448163       0.00000000
Si       2.65276136      -0.07299549      -2.63651314       0.00000000
Si       0.06382422      -2.64833048       2.72854018       0.00000000
Si      -2.64466523      -2.77847130      -0.00066749       0.00000000
Si       2.64546344       2.78238090       0.08391644       0.00000000
Si       2.72947097       0.09327654       2.71299467       0.00000000
