10
Lattice="16.2900001489832 0.0 0.0 0.0 16.2900001489832 0.0 0.0 0.0 29.27589945601073" Properties=species:S:1:pos:R:3:initial_magmoms:R:1 pbc="T T T"
Si      -0.82184680      -1.80848324      -1.27118883       0.00000000
Si       0.30538863      -0.95873167       2.13544266       0.00000000
Si       1.85746727       0.99606672      -1.10378924       0.00000000
Si      -1.67422106       1.70515577      -0.10934548       0.00000000
Si      -2.24077097      -0.51419385      -2.62569687       0.00000000
Si       0.58590244       2.34793474      -2.55493702       0.00000000
Si       2.64238463      -1.43363404       1.89341880       0.00000000
Si      -2.00951813       2.35071544       2.06690778       0.00000000
Si      -1.47349567      -2.62259228       2.32860504       0.00000000
Si      -3.55022634       0.83688247      -1.22024877       0.00000000
