10
Lattice="16.2900001489832 0.0 0.0 0.0 16.2900001489832 0.0 0.0 0.0 29.27589945601073" Properties=species:S:1:pos:R:3:initial_magmoms:R:1 pbc="T T T"
Si       0.92298815       1.71411527      -1.38808750       0.00000000
Si      -1.62634800      -1.14953644      -1.34338320       0.00000000
Si       1.91418579      -1.44829504       0.36313826       0.00000000
Si      -1.04209737       0.89994106       2.06860578       0.00000000
Si      -3.61898969       0.04165353      -1.23374495       0.00000000
Si       2.49191064      -2.28020906      -1.85445258       0.00000000
Si       1.13809760      -3.29742183       1.64047503       0.00000000
Si       2.50802145       2.93418741      -0.15047812       0.00000000
Si      -1.05886304      -1.17468820      -3.69356458       0.00000000
Si      -2.55313498      -3.09252621      -0.31790699       0.00000000
