10
Lattice="16.2900001489832 0.0 0.0 0.0 16.2900001489832 0.0 0.0 0.0 29.27589945601073" Properties=species:S:1:pos:R:3:initial_magmoms:R:1 pbc="T T T"
Si      -2.21882997      -0.80606179      -0.16195428       0.00000000
Si      -0.03682680       2.36418401      -0.21131344       0.00000000
Si       0.34719855      -0.45292716       2.31118588       0.00000000
Si       1.95706270      -0.49197429      -1.40896121       0.00000000
Si       0.88234623       2.59439429      -2.34570217       0.00000000
Si       2.13700204       0.99676882       2.73802850       0.00000000
Si       1.29964716       2.96214219       1.65338570       0.00000000
H        1.61104681      -3.29551590       0.03899550       0.00000000
H        3.20696183      -2.07506909       1.01279974       0.00000000
Si      -3.39961063      -0.68696560       1.97255155       0.00000000
