10
Lattice="16.2900001489832 0.0 0.0 0.0 16.2900001489832 0.0 0.0 0.0 29.27589945601073" Properties=species:S:1:pos:R:3:initial_magmoms:R:1 pbc="T T T"
Si      -0.91123003       0.88951546       1.91590269       0.00000000
Si       1.57226194      -1.49046985       0.91598434       0.00000000
Si       1.56235762       1.53554428      -0.86293641       0.00000000
Si      -1.61073892      -1.52438563      -0.83743710       0.00000000
H       -2.17904816      -2.11040210       0.42690117       0.00000000
Si       1.82076590      -2.62857071      -1.12835172       0.00000000
Si       2.90895420       1.83058877       1.09172757       0.00000000
Si      -0.03543075      -0.53155899       3.60837171       0.00000000
Si      -0.34332804      -3.29154114      -1.82877761       0.00000000
Si       3.59635962      -0.44701389       1.50659634       0.00000000
