10
Lattice="16.2900001489832 0.0 0.0 0.0 16.2900001489832 0.0 0.0 0.0 29.27589945601073" Properties=species:S:1:pos:R:3:initial_magmoms:R:1 pbc="T T T"
Si      -1.20546001      -1.30968343      -1.57814664       0.00000000
Si       1.20969541      -1.36451557       1.53968861       0.00000000
Si      -1.49029066       1.19224882       1.44005222       0.00000000
Si       0.90292213       1.79075972      -1.37283475       0.00000000
H        2.11289447      -1.01696842      -1.45202606       0.00000000
H        2.16435458      -2.23666589       0.75259555       0.00000000
Si      -1.07351101       2.35460549      -2.50490451       0.00000000
Si      -2.33614892       0.38356434      -2.80656338       0.00000000
Si      -0.08557137       2.45330660       2.90171005       0.00000000
Si      -3.06807492       2.39225168       0.12881396       0.00000000
