10
Lattice="16.2900001489832 0.0 0.0 0.0 16.2900001489832 0.0 0.0 0.0 29.27589945601073" Properties=species:S:1:pos:R:3:initial_magmoms:R:1 pbc="T T T"
Si       2.06244108       0.76282813       0.84689322       0.00000000
Si      -1.92557902       0.88472620       1.05331759       0.00000000
Si      -0.09919307      -2.20068128       0.87010901       0.00000000
Si      -0.45931447      -1.11658014      -2.04618044       0.00000000
Si      -1.77771468      -2.73746936      -0.74952158       0.00000000
H       -0.58288064       3.40710240      -0.59673066       0.00000000
Si       2.84209678      -1.24008604       1.95475181       0.00000000
Si      -2.80095475      -1.06884230       2.23386823       0.00000000
Si      -0.96925175       2.64844451       2.45721407       0.00000000
Si      -3.18780968       1.81798031      -0.79618736       0.00000000
