10
Lattice="16.2900001489832 0.0 0.0 0.0 16.2900001489832 0.0 0.0 0.0 29.27589945601073" Properties=species:S:1:pos:R:3:initial_magmoms:R:1 pbc="T T T"
Si      -1.29251377      -1.31035947      -1.50463485       0.00000000
Si       1.03858525      -1.86812744       1.05750404       0.00000000
Si       1.44565606       1.27734127      -1.41153749       0.00000000
Si      -1.23230593       1.51252000       1.45082575       0.00000000
H       -0.40338927      -0.37969221       3.34594255       0.00000000
Si       0.08019567       2.69364275      -2.76680671       0.00000000
Si       2.68765454      -2.80794642      -0.34042016       0.00000000
Si       2.85355842       2.66968016      -0.11159973       0.00000000
Si      -2.69428457       2.83277564       0.05064731       0.00000000
Si      -2.56407860       0.04150855      -2.95578264       0.00000000
