10
Lattice="16.2900001489832 0.0 0.0 0.0 16.2900001489832 0.0 0.0 0.0 29.27589945601073" Properties=species:S:1:pos:R:3:initial_magmoms:R:1 pbc="T T T"
Si      -1.99264169       1.19118997       0.10963824       0.00000000
Si      -0.92678698      -1.94298977       1.02547621       0.00000000
Si       1.62634800       1.14953644       1.34338320       0.00000000
Si       0.56748496      -0.02515176      -2.35018138       0.00000000
Si      -2.81564508       0.89883334       2.29959263       0.00000000
Si      -2.32072229      -2.89843086      -0.69691279       0.00000000
Si       0.91692501      -3.22185415       1.80711345       0.00000000
Si       2.54933615       2.86365171      -0.04470430       0.00000000
Si       3.00543987      -0.15832251      -2.38317532       0.00000000
Si      -0.02837718       2.22130442      -3.19198059       0.00000000
