10
Lattice="16.2900001489832 0.0 0.0 0.0 16.2900001489832 0.0 0.0 0.0 29.27589945601073" Properties=species:S:1:pos:R:3:initial_magmoms:R:1 pbc="T T T"
H        1.04782168      -0.51226349       0.97787359       0.00000000
Si      -1.39224767       1.51459534       1.24536749       0.00000000
Si      -0.81085593      -2.27082602      -0.32396710       0.00000000
Si       1.15351120       1.00188388      -1.92588577       0.00000000
H        2.38900997       2.18821943       0.69099905       0.00000000
H        1.92507077       2.63202419       1.12480933       0.00000000
Si      -2.42385428       0.01855431       2.76352781       0.00000000
Si      -0.50623782       2.02867517      -3.27568039       0.00000000
H       -3.76318551      -1.02069720       0.18186189       0.00000000
Si      -3.13501053       2.37490283      -0.28722585       0.00000000
