10
Lattice="16.2900001489832 0.0 0.0 0.0 16.2900001489832 0.0 0.0 0.0 29.27589945601073" Properties=species:S:1:pos:R:3:initial_magmoms:R:1 pbc="T T T"
Si      -1.67746277      -1.07706223      -1.22963111       0.00000000
Si      -1.31691619       1.32530554       1.42455941       0.00000000
Si       1.30785895      -1.41012757       1.36680392       0.00000000
Si       1.33449310       1.15667146      -1.57215093       0.00000000
Si      -3.44228880       0.64692478      -1.19410246       0.00000000
Si      -2.72324819       2.55308285       0.02854400       0.00000000
Si       2.60436052       2.66968667      -0.21920037       0.00000000
Si       2.77892416      -0.69641380      -2.50391498       0.00000000
Si       2.67257652      -0.03251484       2.71454337       0.00000000
Si      -0.63465841      -2.00741672      -3.20841023       0.00000000
