10
Lattice="16.2900001489832 0.0 0.0 0.0 16.2900001489832 0.0 0.0 0.0 29.27589945601073" Properties=species:S:1:pos:R:3:initial_magmoms:R:1 pbc="T T T"
Si       1.20832705       1.21336066      -1.62440256       0.00000000
Si      -0.72845623       1.63794322       1.56854414       0.00000000
Si      -1.46047996      -1.33217992      -1.35055579       0.00000000
Si       1.82944195      -0.88125643       1.27115955       0.00000000
Si       2.46679472       2.57005703      -0.26444920       0.00000000
H       -1.33064866      -2.50903469       2.25184363       0.00000000
Si       3.46931391       0.87027697       0.99148689       0.00000000
Si       0.81772543       3.50987601       1.13347500       0.00000000
Si      -0.12370626       0.85784770       3.70679729       0.00000000
Si      -0.07139907      -2.73437426      -2.68547826       0.00000000
