10
Lattice="16.2900001489832 0.0 0.0 0.0 16.2900001489832 0.0 0.0 0.0 29.27589945601073" Properties=species:S:1:pos:R:3:initial_magmoms:R:1 pbc="T T T"
Si       2.10654137       0.85038688      -0.64851972       0.00000000
Si       0.69224356      -2.27711396      -0.10925766       0.00000000
Si      -1.89884387       1.01805985      -1.02890149       0.00000000
Si       0.18477747       0.45576162       2.38443418       0.00000000
Si       2.29141658      -1.90760789       1.63977240       0.00000000
H       -1.27666360      -1.85385089      -2.56688159       0.00000000
Si       2.05550480       2.83312425       0.49274266       0.00000000
Si       3.62020818      -0.19898235       0.78687763       0.00000000
Si       1.44741538       2.42680277       2.68609305       0.00000000
Si      -0.93406861      -3.81319581       0.62893415       0.00000000
