10
Lattice="16.2900001489832 0.0 0.0 0.0 16.2900001489832 0.0 0.0 0.0 29.27589945601073" Properties=species:S:1:pos:R:3:initial_magmoms:R:1 pbc="T T T"
H        0.42622785      -0.94855042       1.09904654       0.00000000
Si       0.07332129       1.97993549       1.18382955       0.00000000
Si      -1.94074175      -1.02076399      -0.78597007       0.00000000
Si       1.44241435      -0.35710938      -1.79493467       0.00000000
Si      -1.12383082      -3.23146362      -0.34150337       0.00000000
Si       2.66563046      -2.09132651      -0.76404242       0.00000000
Si       0.23320764       1.03664674       3.33736471       0.00000000
Si      -0.23040576      -1.07948944      -3.35572070       0.00000000
Si      -1.84013471       2.99799534       0.35101803       0.00000000
Si       1.47861073      -1.11159703       3.04618661       0.00000000
