10
Lattice="16.2900001489832 0.0 0.0 0.0 16.2900001489832 0.0 0.0 0.0 29.27589945601073" Properties=species:S:1:pos:R:3:initial_magmoms:R:1 pbc="T T T"
Si      -1.24697833       1.29274509       1.49362419       0.00000000
Si      -1.82796119      -0.94521748      -1.19942862       0.00000000
Si       0.86873430       1.81298253      -1.30295318       0.00000000
Si       1.44800671      -1.47619656       1.24017980       0.00000000
Si      -2.48754330       2.60664763      -0.05323530       0.00000000
Si       2.67666368       2.65807516       0.00923947       0.00000000
Si      -0.99066007      -1.75470669      -3.20532748       0.00000000
Si      -2.60095428      -0.13134790       2.76724877       0.00000000
Si      -3.46425912       0.90545034      -1.42005385       0.00000000
Si       2.82330626      -0.11842179       2.62353338       0.00000000
