10
Lattice="16.2900001489832 0.0 0.0 0.0 16.2900001489832 0.0 0.0 0.0 29.27589945601073" Properties=species:S:1:pos:R:3:initial_magmoms:R:1 pbc="T T T"
Si      -0.62121916      -0.35214093      -2.26577896       0.00000000
Si       1.74076571       1.61629381      -0.36720761       0.00000000
Si       0.54152847      -2.35504532       0.38878394       0.00000000
Si      -1.80823889       0.62758855       1.54445008       0.00000000
H       -2.86062177       0.79063516      -0.40269000       0.00000000
H       -0.83566072      -2.04107186       2.59923146       0.00000000
Si      -0.34215516       0.42306759       3.42270396       0.00000000
Si      -2.12110463      -2.12788127      -1.90460219       0.00000000
Si       3.49733271       0.17743068      -1.39906596       0.00000000
Si      -1.63010773      -3.59425821       0.00491835       0.00000000
