10
Lattice="16.2900001489832 0.0 0.0 0.0 16.2900001489832 0.0 0.0 0.0 29.27589945601073" Properties=species:S:1:pos:R:3:initial_magmoms:R:1 pbc="T T T"
H       -0.22879305       0.61545575      -1.38106128       0.00000000
Si       1.48568059      -1.70411158      -0.24164327       0.00000000
Si       1.11053818       1.65470726       1.20060464       0.00000000
Si      -1.97817617      -1.01699937       0.77671889       0.00000000
Si      -0.92437606       2.46091566       2.08107731       0.00000000
Si       2.72353653      -0.63467307      -1.88689027       0.00000000
Si      -3.11753136      -0.72127071      -1.26612410       0.00000000
Si      -2.64407879       0.79713650       2.30878526       0.00000000
Si       0.27174978      -3.52500779      -1.09617750       0.00000000
Si      -1.35384562      -3.39532310       0.61218833       0.00000000
