10
Lattice="16.2900001489832 0.0 0.0 0.0 16.2900001489832 0.0 0.0 0.0 29.27589945601073" Properties=species:S:1:pos:R:3:initial_magmoms:R:1 pbc="T T T"
Si      -1.32352667       1.40439349       1.40339586       0.00000000
Si       1.48488564       1.30316743      -1.33922017       0.00000000
Si      -1.26986741      -1.51301521      -1.35295056       0.00000000
Si       1.34242959      -1.28909287       1.52425263       0.00000000
Si       2.63365645      -0.31858353      -2.60777416       0.00000000
Si      -2.60436052      -2.66968667       0.21920037       0.00000000
Si      -2.69770222       0.08083098      -2.62651074       0.00000000
Si       2.78503942       2.68402187       0.07152395       0.00000000
Si      -2.58008842       0.07275114       2.91720286       0.00000000
Si       2.78077144      -2.73890289       0.36181499       0.00000000
