10
Lattice="16.2900001489832 0.0 0.0 0.0 16.2900001489832 0.0 0.0 0.0 29.27589945601073" Properties=species:S:1:pos:R:3:initial_magmoms:R:1 pbc="T T T"
Si       1.49190337      -1.83620882       0.16971239       0.00000000
Si      -1.64985122      -1.08115102       1.35752346       0.00000000
Si       1.23460282       1.78520808       1.04362726       0.00000000
Si       0.13258431      -0.39322431      -2.38162370       0.00000000
Si      -1.52761105       2.60556923      -1.43817856       0.00000000
Si       0.81998974      -2.67082697      -1.96675493       0.00000000
Si       0.37271520       2.00515730      -2.93315237       0.00000000
Si       2.50558121       0.46066491       2.52042074       0.00000000
Si      -0.28318536      -2.42057999       2.72920503       0.00000000
Si      -3.38797794       1.02252983      -1.31987465       0.00000000
