10
Lattice="16.2900001489832 0.0 0.0 0.0 16.2900001489832 0.0 0.0 0.0 29.27589945601073" Properties=species:S:1:pos:R:3:initial_magmoms:R:1 pbc="T T T"
Si      -0.20171907       1.57563397      -1.73632432       0.00000000
Si      -1.11267217      -1.96747364      -0.66576323       0.00000000
Si       2.34207848      -0.53437716      -0.26210713       0.00000000
Si      -1.06609906       1.10889289       1.92720319       0.00000000
H        1.04943439       2.39793689      -1.36823844       0.00000000
H       -3.09679419       0.82852570      -0.84727381       0.00000000
H       -3.03500622       1.53215596      -0.53042075       0.00000000
Si      -2.42813855      -2.44697631       1.24308397       0.00000000
Si      -0.03332934      -1.95559334       3.21800687       0.00000000
Si       3.23705109      -0.22252140       1.95038970       0.00000000
