10
Lattice="16.2900001489832 0.0 0.0 0.0 16.2900001489832 0.0 0.0 0.0 29.27589945601073" Properties=species:S:1:pos:R:3:initial_magmoms:R:1 pbc="T T T"
Si       0.41401198      -1.26267049      -1.92146511       0.00000000
Si       1.98625601      -0.50375196       1.24220569       0.00000000
Si       0.03744582       2.34949043      -0.59166593       0.00000000
Si      -2.09088668      -1.26744346       0.63432091       0.00000000
H        1.30129408      -0.49309830      -2.86385631       0.00000000
Si       0.85883813      -1.89332156       2.76607481       0.00000000
Si      -2.01342773       1.55360989       2.42427868       0.00000000
H        2.89720911       0.72734851      -1.89005207       0.00000000
Si      -3.56825937       0.55346905       0.91566231       0.00000000
Si      -0.58559293      -0.04023630       3.69783886       0.00000000
