10
Lattice="16.2900001489832 0.0 0.0 0.0 16.2900001489832 0.0 0.0 0.0 29.27589945601073" Properties=species:S:1:pos:R:3:initial_magmoms:R:1 pbc="T T T"
Si      -1.42969838       1.39240405      -1.22660164       0.00000000
Si      -1.40647210      -1.32895939       1.36273457       0.00000000
Si       1.34469064       1.37419183       1.39400123       0.00000000
Si       1.30139182      -1.27949480      -1.56992011       0.00000000
Si      -0.01707192       2.69821046      -2.53863035       0.00000000
Si       2.66336615      -2.64790694      -0.18259378       0.00000000
Si       2.69226461       2.64091853      -0.08346559       0.00000000
Si      -2.73701324      -2.65461842      -0.08062583       0.00000000
Si      -0.03777651      -2.67885794       2.72731352       0.00000000
Si       2.71958294      -0.06182055       2.70357076       0.00000000
