10
Lattice="16.2900001489832 0.0 0.0 0.0 16.2900001489832 0.0 0.0 0.0 29.27589945601073" Properties=species:S:1:pos:R:3:initial_magmoms:R:1 pbc="T T T"
Si      -1.25846767      -1.35669637      -1.35995336       0.00000000
Si       1.00251919      -1.69978007       1.25593609       0.00000000
Si       1.52419015       1.41346702      -1.10668755       0.00000000
Si      -1.64906930       0.93981898       1.39792420       0.00000000
Si      -0.13871424       1.17812539       3.18053372       0.00000000
Si      -2.46679472      -2.57005703       0.26444920       0.00000000
Si       1.42122106      -0.66332881       3.28097933       0.00000000
Si      -2.60951141       0.12421125      -2.57179994       0.00000000
Si       0.15549457       2.76336558      -2.47126650       0.00000000
Si       0.27727209      -2.68607441      -2.54612498       0.00000000
