10
Lattice="16.28999089631971 0.0 0.0 0.0 16.28999089631971 0.0 0.0 0.0 34.433804113860816" Properties=species:S:1:pos:R:3:initial_magmoms:R:1 pbc="T T T"
Si      -1.34045143      -1.35290200      -1.36388931       0.00000000
Si       1.29962435      -1.37721754       1.41392165       0.00000000
Si       1.37358094       1.36234410      -1.35879310       0.00000000
Si      -1.26445945       1.48491006       1.38782082       0.00000000
Si       2.34211918       0.31711254       2.71472820       0.00000000
Si       0.59389267       2.22916758       2.80064059       0.00000000
Si      -2.70242859      -2.70692137       0.02895885       0.00000000
Si       2.72773607      -2.69310745      -0.00368442       0.00000000
Si      -2.69884479       0.00220892      -2.72223477       0.00000000
Si      -2.69110704       2.73469515      -0.01181080       0.00000000
