10
Lattice="16.28999089631971 0.0 0.0 0.0 16.28999089631971 0.0 0.0 0.0 34.433804113860816" Properties=species:S:1:pos:R:3:initial_magmoms:R:1 pbc="T T T"
Si      -1.78362794      -1.60342470      -0.54119640       0.00000000
Si      -0.34513623       1.99995588      -1.43341120       0.00000000
Si      -1.20109428       1.50658065       1.62544863       0.00000000
Si       2.57619834      -0.05999607      -0.07072707       0.00000000
Si      -1.07979894      -3.70084365       0.23707687       0.00000000
Si       3.04132671      -0.78275079      -2.36481169       0.00000000
Si       3.23154504       2.30544225       0.40862618       0.00000000
Si      -2.67796034      -1.23443991      -2.70890888       0.00000000
Si       0.25542720       3.05912421       2.68277361       0.00000000
Si      -3.78629189      -1.33861446       0.74903896       0.00000000
