10
Lattice="16.28999089631971 0.0 0.0 0.0 16.28999089631971 0.0 0.0 0.0 34.433804113860816" Properties=species:S:1:pos:R:3:initial_magmoms:R:1 pbc="T T T"
Si       1.82382677      -0.01203831      -1.46498701       0.00000000
Si      -1.28882475       1.96863021       0.24571976       0.00000000
Si       0.89433240      -0.36898479       2.16771248       0.00000000
Si      -1.49857479      -1.72178784      -0.80141280       0.00000000
Si       0.19717090      -3.36821814      -0.68020575       0.00000000
Si       2.20776578      -2.34088929      -1.28073163       0.00000000
Si       0.56295308       0.76106880      -3.37379158       0.00000000
Si      -1.10833155      -0.10417455       3.45794784       0.00000000
Si      -3.35169261      -1.43052264       0.69728492       0.00000000
Si      -2.28916107       1.76215446       2.45406416       0.00000000
