10
Lattice="16.28999089631971 0.0 0.0 0.0 16.28999089631971 0.0 0.0 0.0 34.433804113860816" Properties=species:S:1:pos:R:3:initial_magmoms:R:1 pbc="T T T"
Si      -1.44159074      -1.81294668      -0.29819691       0.00000000
Si      -1.17335960       1.38295651       1.50988872       0.00000000
Si       2.18005812      -0.54718110       0.73158101       0.00000000
Si       0.31273705       1.01872188      -2.13362300       0.00000000
Si       2.63344140       1.68651903       1.49404916       0.00000000
Si       0.65988346       2.57250770       2.48577771       0.00000000
Si      -2.56527494      -1.24436052      -2.34625186       0.00000000
Si      -2.44192706      -2.01942243       1.91014748       0.00000000
Si       3.40535934      -0.63558693      -1.37280767       0.00000000
Si      -0.15276599      -3.78157689      -0.54391667       0.00000000
