10
Lattice="16.28999089631971 0.0 0.0 0.0 16.28999089631971 0.0 0.0 0.0 34.433804113860816" Properties=species:S:1:pos:R:3:initial_magmoms:R:1 pbc="T T T"
Si       1.45652148       1.55254356       1.05732498       0.00000000
Si      -0.75871652      -1.19185785       2.05841953       0.00000000
Si       1.20109428      -1.50658065      -1.62544863       0.00000000
Si       0.85595805       0.49337523      -3.05885983       0.00000000
Si      -0.44136940       3.13803134       1.03301470       0.00000000
Si      -2.57139998       2.14098071       1.38472177       0.00000000
Si       1.30934133       2.72707536      -2.29639168       0.00000000
Si       2.86226703       2.43976049      -0.57604343       0.00000000
Si      -0.58253366      -3.11000535      -2.16664503       0.00000000
Si      -3.66709796       1.09659393      -0.71656786       0.00000000
