10
Lattice="16.28999089631971 0.0 0.0 0.0 16.28999089631971 0.0 0.0 0.0 34.433804113860816" Properties=species:S:1:pos:R:3:initial_magmoms:R:1 pbc="T T T"
Si       1.71275666      -0.78320691       1.59435489       0.00000000
Si       0.75871652       1.19185785      -2.05841953       0.00000000
Si      -1.01050128      -2.26528740      -0.64356816       0.00000000
Si      -1.17616618       2.02264785       1.28503585       0.00000000
Si       0.06379490      -1.75192434       3.01171101       0.00000000
Si       2.21523800       2.74440141      -1.00109455       0.00000000
Si      -1.82648108      -1.65333726      -2.93482920       0.00000000
Si      -1.81268345       3.33283856      -0.67369775       0.00000000
Si      -0.73848434      -3.46595814       1.61543959       0.00000000
Si      -2.74365695       0.93287943       2.72804518       0.00000000
