10
Lattice="16.28999089631971 0.0 0.0 0.0 16.28999089631971 0.0 0.0 0.0 34.433804113860816" Properties=species:S:1:pos:R:3:initial_magmoms:R:1 pbc="T T T"
Si      -1.35480672      -1.35856156       1.35614170       0.00000000
Si      -1.35646830       1.35760860      -1.35676151       0.00000000
Si       1.35741312       1.35907470       1.35734688       0.00000000
Si       1.35873261      -1.35728117      -1.35793226       0.00000000
Si      -0.00687438      -2.70572732       2.70994190       0.00000000
Si      -2.71376739      -2.71394454       0.00020660       0.00000000
Si      -2.71454931       0.00043983      -2.71465933       0.00000000
Si       2.71661814       0.00109143      -2.71279991       0.00000000
Si      -0.00141723       2.71357191       2.71641546       0.00000000
Si      -2.71451673       2.71551042       0.00082641       0.00000000
