10
Lattice="16.28999089631971 0.0 0.0 0.0 16.28999089631971 0.0 0.0 0.0 34.433804113860816" Properties=species:S:1:pos:R:3:initial_magmoms:R:1 pbc="T T T"
Si      -0.71224767      -0.96654923       2.00318767       0.00000000
Si       1.81706805      -1.05523036      -1.05119576       0.00000000
Si      -2.02215915      -0.15883727      -1.29340327       0.00000000
Si       0.79368138       2.26488015       0.24052026       0.00000000
Si      -2.39122539       2.20793031      -1.08717910       0.00000000
Si      -0.19663659       2.92061781      -1.79121306       0.00000000
Si      -2.02435830       0.86091021       2.79175666       0.00000000
Si       3.16682487       1.88102259       0.52663089       0.00000000
Si       3.71887668      -0.38567552       0.15488334       0.00000000
Si      -2.41163676      -2.53179899       1.69001205       0.00000000
