10
Lattice="16.28999089631971 0.0 0.0 0.0 16.28999089631971 0.0 0.0 0.0 34.433804113860816" Properties=species:S:1:pos:R:3:initial_magmoms:R:1 pbc="T T T"
Si      -1.69938909      -1.56524976      -0.31317562       0.00000000
Si       0.71224767       0.96654923      -2.00318767       0.00000000
Si       1.63491327      -0.24336120       1.67282957       0.00000000
Si      -1.31211063       1.82745944       0.78856899       0.00000000
Si      -2.84714991      -0.65043364      -2.15934506       0.00000000
Si      -2.47130703       0.75685621       2.55368121       0.00000000
Si      -1.30991148       0.80771196      -3.29659095       0.00000000
Si       2.31546060       1.95276212       2.04757287       0.00000000
Si       0.33635592       3.27762782       1.72124353       0.00000000
Si      -2.92469031      -1.47684393       1.79121306       0.00000000
