10
Lattice="16.28999089631971 0.0 0.0 0.0 16.28999089631971 0.0 0.0 0.0 34.433804113860816" Properties=species:S:1:pos:R:3:initial_magmoms:R:1 pbc="T T T"
Si       1.28777337      -1.40147757       1.34222010       0.00000000
Si       1.37738466       1.18122048      -1.54587348       0.00000000
Si      -1.45831338       1.32727662       1.34328755       0.00000000
Si      -1.07313633      -1.70510688      -1.30770295       0.00000000
Si      -1.12901103      -0.28890315      -3.38880614       0.00000000
Si       2.51147817       2.61016299       0.02495075       0.00000000
Si       2.61672786      -0.04318479       2.72162874       0.00000000
Si      -0.10538001       2.68579746       2.72197308       0.00000000
Si      -0.09767484      -2.75330159       2.71842639       0.00000000
Si      -2.86802880       2.65012236      -0.10953744       0.00000000
