10
Lattice="16.28999089631971 0.0 0.0 0.0 16.28999089631971 0.0 0.0 0.0 34.433804113860816" Properties=species:S:1:pos:R:3:initial_magmoms:R:1 pbc="T T T"
Si       0.19909638       2.33471538      -0.13164051       0.00000000
Si       0.99031797      -0.65573766       2.03173331       0.00000000
Si      -2.19458880      -0.71268750       0.70403395       0.00000000
Si       1.02532518      -0.91455318      -2.05346106       0.00000000
Si       0.19663659      -2.92061781       1.79121306       0.00000000
Si      -1.82552256      -3.07945508       0.49780978       0.00000000
Si       1.90102671       1.25131635      -2.83242301       0.00000000
Si       0.14165784       2.87490807      -2.40337757       0.00000000
Si       2.43740754       2.91283119       0.16603990       0.00000000
Si      -3.82505490       0.56252628      -0.43403834       0.00000000
