10
Lattice="16.28999089631971 0.0 0.0 0.0 16.28999089631971 0.0 0.0 0.0 34.433804113860816" Properties=species:S:1:pos:R:3:initial_magmoms:R:1 pbc="T T T"
Si       1.92103083       1.06144011       0.81236276       0.00000000
Si       0.65853954      -1.02322377      -2.00077731       0.00000000
Si      -0.44010693      -1.72175526       1.52703676       0.00000000
Si      -1.64563209       1.68205653      -0.01742351       0.00000000
Si       1.14318333      -1.22890131       3.08496067       0.00000000
Si      -2.70311373       1.17639864       2.02632720       0.00000000
Si       1.72732644       1.26328950       3.19025930       0.00000000
Si      -2.45522880      -1.28146914       2.75505021       0.00000000
Si       2.63764422      -2.34808947      -1.67444796       0.00000000
Si      -0.59619771      -3.83131026       0.55200862       0.00000000
