10
Lattice="16.28999089631971 0.0 0.0 0.0 16.28999089631971 0.0 0.0 0.0 34.433804113860816" Properties=species:S:1:pos:R:3:initial_magmoms:R:1 pbc="T T T"
Si      -0.29958939      -2.23039422       0.67741661       0.00000000
Si      -1.63365894       1.51922169       0.76904501       0.00000000
Si       2.03590791       0.66189528       1.03215386       0.00000000
Si       0.24918813       0.55232874      -2.32073639       0.00000000
Si       1.95882363       2.78902719      -0.06473559       0.00000000
Si      -3.38481765       0.71104221      -0.70455046       0.00000000
Si      -0.37418130       3.58365339       0.52012290       0.00000000
Si       2.08738431       1.98014724      -2.24935508       0.00000000
Si      -0.49329378      -2.02854483       3.05531315       0.00000000
Si       1.72553454      -3.32306226       0.11221983       0.00000000
