10
Lattice="16.28999089631971 0.0 0.0 0.0 16.28999089631971 0.0 0.0 0.0 34.433804113860816" Properties=species:S:1:pos:R:3:initial_magmoms:R:1 pbc="T T T"
Si      -0.79632036      -1.63349604       1.58728360       0.00000000
Si      -0.25425432      -1.98780354      -1.39126420       0.00000000
Si       1.90210185       1.02812706       1.41138874       0.00000000
Si      -2.03330151       1.16385534      -1.26933403       0.00000000
Si      -2.06477379      -0.19662030       2.92288897       0.00000000
Si      -1.93041387      -3.06243855       0.01645937       0.00000000
Si       0.66552795       2.49766425       2.90505569       0.00000000
Si      -3.41501931       1.26016182       1.57791071       0.00000000
Si      -2.60029125       3.00500001       0.21186166       0.00000000
Si       2.27494737       0.70263657      -3.41442349       0.00000000
