10
Lattice="16.28999089631971 0.0 0.0 0.0 16.28999089631971 0.0 0.0 0.0 34.433804113860816" Properties=species:S:1:pos:R:3:initial_magmoms:R:1 pbc="T T T"
Si      -1.17092520      -1.54158786       1.37139643       0.00000000
Si       1.59456294       1.18871388       1.36342156       0.00000000
Si       0.82427400      -0.89717175      -2.22105823       0.00000000
Si      -1.19980737       2.19380688      -0.44661444       0.00000000
Si       1.86272892       1.14644133      -2.89162250       0.00000000
Si      -2.41368930      -0.11069055       2.72355414       0.00000000
Si      -0.18634131       2.57232132      -2.62569009       0.00000000
Si      -2.95898076      -2.34277893       0.00759247       0.00000000
Si       0.29307339       2.60469102       2.71772794       0.00000000
Si       0.30683844      -2.85011469       2.70078650       0.00000000
