10
Lattice="16.28999089631971 0.0 0.0 0.0 16.28999089631971 0.0 0.0 0.0 34.433804113860816" Properties=species:S:1:pos:R:3:initial_magmoms:R:1 pbc="T T T"
Si      -0.27738612       1.92542913      -1.36681618       0.00000000
Si      -1.64788011      -1.69479531      -0.31834070       0.00000000
Si      -0.12548187      -0.14385699       2.39025828       0.00000000
Si       2.23353819      -0.27038142      -0.87069366       0.00000000
Si       1.29062412      -0.93833658      -2.91416890       0.00000000
Si      -0.05585841       0.91556316      -3.48432415       0.00000000
Si      -3.20812002      -1.09877679       1.33957903       0.00000000
Si      -0.25168050      -3.63123648      -0.33583308       0.00000000
Si       3.27955167       1.81226250      -0.31510392       0.00000000
Si       1.56748896       3.34337819      -0.93102172       0.00000000
