10
Lattice="16.28999089631971 0.0 0.0 0.0 16.28999089631971 0.0 0.0 0.0 34.433804113860816" Properties=species:S:1:pos:R:3:initial_magmoms:R:1 pbc="T T T"
Si      -1.57037229       1.64089889       0.64077902       0.00000000
Si       0.98292231       0.92799636      -1.96042087       0.00000000
Si      -0.65534670      -2.36543832      -0.47935325       0.00000000
Si       1.17975438       0.35341155       2.24887300       0.00000000
Si       2.80956888      -0.44523828      -2.30754824       0.00000000
Si      -2.97611784       0.75368196       2.27414743       0.00000000
Si      -3.12329799       1.92821376      -1.07956923       0.00000000
Si      -0.65199096       1.17135756      -3.63325044       0.00000000
Si       1.66346964       3.12411968      -1.58567757       0.00000000
Si       3.22882461      -1.07246844       1.98294059       0.00000000
