10
Lattice="16.28999089631971 0.0 0.0 0.0 16.28999089631971 0.0 0.0 0.0 34.433804113860816" Properties=species:S:1:pos:R:3:initial_magmoms:R:1 pbc="T T T"
Si      -1.34442999       1.29510713       1.36948481       0.00000000
Si      -1.61165115      -1.18311012      -1.23416918       0.00000000
Si       1.38903201      -1.44333051       1.32578140       0.00000000
Si       0.85726125       1.87850090      -1.43220743       0.00000000
Si      -3.11363802       0.76486763      -1.38744346       0.00000000
Si      -2.48503950       2.73406799      -0.16834696       0.00000000
Si       0.02208924       2.62707527       2.71140189       0.00000000
Si       2.76045453       2.63049617      -0.17371175       0.00000000
Si      -2.69557146      -0.08579128       2.71512075       0.00000000
Si      -0.41922315      -2.29019874      -3.05603767       0.00000000
