10
Lattice="16.28999089631971 0.0 0.0 0.0 16.28999089631971 0.0 0.0 0.0 34.433804113860816" Properties=species:S:1:pos:R:3:initial_magmoms:R:1 pbc="T T T"
Si       1.34442999      -1.29510713      -1.36948481       0.00000000
Si       1.36651923       1.33196814       1.34191709       0.00000000
Si      -1.35114147      -1.38089841       1.34563594       0.00000000
Si      -1.14060951       1.43896086      -1.53783177       0.00000000
Si      -1.76920803      -0.53023950      -2.75692827       0.00000000
Si      -0.26722116      -2.47821725      -2.60365398       0.00000000
Si       2.20169124       0.58339377      -2.80169224       0.00000000
Si      -2.68817580       2.68286526      -0.03716098       0.00000000
Si       0.00974142       2.69017947       2.70060689       0.00000000
Si      -2.70330921      -0.02363679       2.70298282       0.00000000
