10
Lattice="16.28999089631971 0.0 0.0 0.0 16.28999089631971 0.0 0.0 0.0 34.433804113860816" Properties=species:S:1:pos:R:3:initial_magmoms:R:1 pbc="T T T"
Si       1.35410625      -1.35948847      -1.36061810       0.00000000
Si      -1.36171368       1.35769005      -1.36258082       0.00000000
Si       1.35026181       1.37600001       1.36561100       0.00000000
Si      -1.36888128      -1.37268337       1.35596953       0.00000000
Si       2.63125854      -0.09615987       2.66311190       0.00000000
Si       2.70796815       2.71523349      -0.00585375       0.00000000
Si       2.71410948      -2.71493117      -0.00368442       0.00000000
Si       2.71153566      -0.00100998      -2.71972110       0.00000000
Si      -2.72054403       2.71218726      -0.00351225       0.00000000
Si      -2.72600118      -2.70711197      -0.00998581       0.00000000
