10
Lattice="16.28999089631971 0.0 0.0 0.0 16.28999089631971 0.0 0.0 0.0 34.433804113860816" Properties=species:S:1:pos:R:3:initial_magmoms:R:1 pbc="T T T"
Si       1.25162586       1.99210410       0.15812012       0.00000000
Si      -1.29529935       0.18350196      -1.98920754       0.00000000
Si       1.68484212      -1.66686515       0.51795357       0.00000000
Si      -1.09092501      -0.99626871       1.94055255       0.00000000
Si       2.21039010       1.27975869       2.32731325       0.00000000
Si       0.47729700       1.20301650      -3.32417244       0.00000000
Si       0.62113770      -2.52738440       2.55647035       0.00000000
Si       2.30850477       2.06105967      -1.97632929       0.00000000
Si       2.20165866      -2.83156757      -1.47910488       0.00000000
Si       3.49848927      -0.63073414       1.69524599       0.00000000
