10
Lattice="16.28999089631971 0.0 0.0 0.0 16.28999089631971 0.0 0.0 0.0 34.433804113860816" Properties=species:S:1:pos:R:3:initial_magmoms:R:1 pbc="T T T"
Si       1.55463615      -0.56246601       1.69049412       0.00000000
Si       0.74976354       0.68900510      -2.15438659       0.00000000
Si      -1.88910243       1.37777888       0.56027274       0.00000000
Si      -0.61675569      -2.32308825      -0.19878646       0.00000000
Si      -1.84495653      -2.16359286      -2.25286733       0.00000000
Si      -2.99105577       1.40576510      -1.53099665       0.00000000
Si      -0.13214448      -1.08079263      -3.48466849       0.00000000
Si      -1.00812294       2.24505848      -2.70605088       0.00000000
Si      -1.42570080      -2.79082302       2.03762150       0.00000000
Si       3.53572821      -1.42062225       0.55493550       0.00000000
