10
Lattice="16.28999089631971 0.0 0.0 0.0 16.28999089631971 0.0 0.0 0.0 34.433804113860816" Properties=species:S:1:pos:R:3:initial_magmoms:R:1 pbc="T T T"
Si      -0.02718801       2.18515689       0.90657370       0.00000000
Si      -0.41932089       0.05551632      -2.34907543       0.00000000
Si       1.75788648      -1.55605338       0.55166428       0.00000000
Si      -1.98293283      -0.83929338       1.17505422       0.00000000
Si       1.15773030       1.86435792      -2.63281013       0.00000000
Si      -0.88097949      -0.86727960       3.26632362       0.00000000
Si      -0.67442229       1.47756816       3.09666817       0.00000000
Si       0.13273092      -2.21118179      -2.72082299       0.00000000
Si       0.87597846      -3.32585111      -0.77861761       0.00000000
Si       1.00812294      -2.24505848       2.70605088       0.00000000
