10
Lattice="16.28999089631971 0.0 0.0 0.0 16.28999089631971 0.0 0.0 0.0 34.433804113860816" Properties=species:S:1:pos:R:3:initial_magmoms:R:1 pbc="T T T"
Si       1.28099673      -1.47215988       1.29750090       0.00000000
Si       1.35770634       1.33923348      -1.37146475       0.00000000
Si      -1.35026181      -1.37600001      -1.36561100       0.00000000
Si      -1.38217392       1.28853900       1.49497887       0.00000000
Si      -0.49159962      -2.49167442       2.63246580       0.00000000
Si      -2.21434857      -0.56441592       2.85852385       0.00000000
Si      -2.71331127       2.68868079       0.01645937       0.00000000
Si       2.72241738       2.68931610      -0.01408343       0.00000000
Si       0.10767690       2.72904741       2.68239484       0.00000000
Si       0.00369783       2.69511534      -2.72888050       0.00000000
