10
Lattice="16.28999089631971 0.0 0.0 0.0 16.28999089631971 0.0 0.0 0.0 34.433804113860816" Properties=species:S:1:pos:R:3:initial_magmoms:R:1 pbc="T T T"
Si       1.63189962      -0.84862755      -1.50052272       0.00000000
Si      -0.75025224       2.29433247       0.28184084       0.00000000
Si      -2.17551321      -1.07391825       0.20305626       0.00000000
Si       1.72434537      -0.69229242       1.58622851       0.00000000
Si       0.20209374       0.04294044      -3.12297561       0.00000000
Si      -2.21985459      -0.45851463      -2.53453600       0.00000000
Si      -1.34179101      -2.83242375       1.46144033       0.00000000
Si       1.92479382      -3.09224925      -0.86890310       0.00000000
Si      -3.43069029       0.24962796       1.65192824       0.00000000
Si      -0.02937087       2.98585926       2.46267261       0.00000000
