10
Lattice="16.28999089631971 0.0 0.0 0.0 16.28999089631971 0.0 0.0 0.0 34.433804113860816" Properties=species:S:1:pos:R:3:initial_magmoms:R:1 pbc="T T T"
Si       2.01512187      -0.44028612      -1.22801344       0.00000000
Si      -1.44460535      -1.85157027      -0.59398345       0.00000000
Si       0.05587470      -1.41620373       2.08110319       0.00000000
Si      -0.24788493       2.45786778      -0.72872300       0.00000000
Si      -2.50397988       1.85600115      -1.14186002       0.00000000
Si       2.50639569       1.47012363       1.84293266       0.00000000
Si       0.45328554      -3.43705805      -0.56967317       0.00000000
Si       1.12901103       0.28890315       3.38880614       0.00000000
Si       3.59841213       0.05256783       0.32991046       0.00000000
Si      -1.66745255      -1.37653758      -2.93166129       0.00000000
