10
Lattice="16.28999089631971 0.0 0.0 0.0 16.28999089631971 0.0 0.0 0.0 34.433804113860816" Properties=species:S:1:pos:R:3:initial_magmoms:R:1 pbc="T T T"
Si       1.35207000       1.35602847      -1.36452978       0.00000000
Si      -1.35790182       1.35733167       1.36089357       0.00000000
Si       1.35697329      -1.35812988       1.36116904       0.00000000
Si      -1.35628911      -1.37016819      -1.37649553       0.00000000
Si      -0.06856461       2.66866038      -2.71386047       0.00000000
Si       2.71362078      -2.71559187      -0.00337451       0.00000000
Si      -2.71311579      -2.71625976       0.00154952       0.00000000
Si       2.71401174       2.71557558      -0.00137735       0.00000000
Si      -0.00045612       2.71505430       2.71793055       0.00000000
Si       2.71489140      -0.00079821       2.71855035       0.00000000
