10
Lattice="16.28999089631971 0.0 0.0 0.0 16.28999089631971 0.0 0.0 0.0 34.433804113860816" Properties=species:S:1:pos:R:3:initial_magmoms:R:1 pbc="T T T"
Si      -1.34961021       1.34516304       1.35782896       0.00000000
Si       1.35827649       1.35488817      -1.35497095       0.00000000
Si      -1.35596331      -1.35943308      -1.35448888       0.00000000
Si       1.35581670      -1.35855342       1.36561100       0.00000000
Si       0.00060273       2.71379997      -2.71245557       0.00000000
Si      -2.71474479      -0.00200367      -2.71183576       0.00000000
Si       2.71547784       2.71132389       0.00278914       0.00000000
Si       2.71595025      -0.00205254      -2.71183576       0.00000000
Si      -2.71536381       2.71308321       0.00564715       0.00000000
Si      -2.71280628      -2.71617831       0.00371885       0.00000000
