10
Lattice="16.28999089631971 0.0 0.0 0.0 16.28999089631971 0.0 0.0 0.0 34.433804113860816" Properties=species:S:1:pos:R:3:initial_magmoms:R:1 pbc="T T T"
Si       1.34597754       1.36959804      -1.38413640       0.00000000
Si      -1.36441782      -1.35684297      -1.38764865       0.00000000
Si      -1.66232934       1.07300601       1.33031633       0.00000000
Si       1.53798777      -1.28243025       1.49645953       0.00000000
Si      -2.71383255      -2.68473861      -0.01480654       0.00000000
Si       2.70456354       2.70474666      -0.01928294       0.00000000
Si       2.72645730      -2.69404020      -0.01119099       0.00000000
Si       2.70067023       0.00931788      -2.74268846       0.00000000
Si      -3.59303643      -0.76706352       1.15752741       0.00000000
Si      -0.01480761      -2.70200601      -2.74547760       0.00000000
