10
Lattice="16.28999089631971 0.0 0.0 0.0 16.28999089631971 0.0 0.0 0.0 34.433804113860816" Properties=species:S:1:pos:R:3:initial_magmoms:R:1 pbc="T T T"
Si       1.18846953      -1.41160995      -1.50765052       0.00000000
Si      -1.04212017      -1.85637582       1.09892104       0.00000000
Si      -1.53798777       1.28243025      -1.49645953       0.00000000
Si       1.44950049       1.23621552       1.63126795       0.00000000
Si       2.56197717       2.79186802       0.07320631       0.00000000
Si       2.63182869      -2.73616614      -0.09155954       0.00000000
Si       2.51519229      -0.06289569      -2.88317846       0.00000000
Si       0.74049453      -3.59078841       1.11923699       0.00000000
Si      -0.19201023       2.65202829      -2.88059593       0.00000000
Si      -2.11994802      -1.21020039       3.06777819       0.00000000
