10
Lattice="16.28999089631971 0.0 0.0 0.0 16.28999089631971 0.0 0.0 0.0 34.433804113860816" Properties=species:S:1:pos:R:3:initial_magmoms:R:1 pbc="T T T"
Si      -1.03845492      -2.04361308       0.67056428       0.00000000
Si       0.80894511       0.46773477      -2.23640796       0.00000000
Si       2.07202284       0.59943942       1.20308335       0.00000000
Si      -2.04907023       1.42587999       0.26593242       0.00000000
Si       0.87959484       1.70652804       3.02495185       0.00000000
Si      -1.86272892      -1.14644133       2.89162250       0.00000000
Si       2.98033695       2.22835701      -0.34712737       0.00000000
Si       1.42570080       2.79082302      -2.03762150       0.00000000
Si       2.53410498      -1.11998637      -2.63487616       0.00000000
Si       0.72516564      -3.77398575       0.68296045       0.00000000
