10
Lattice="16.28999089631971 0.0 0.0 0.0 16.28999089631971 0.0 0.0 0.0 34.433804113860816" Properties=species:S:1:pos:R:3:initial_magmoms:R:1 pbc="T T T"
Si       0.90831411       1.62891759      -1.55021073       0.00000000
Si      -1.19242800       1.10708862       1.82186850       0.00000000
Si      -2.07202284      -0.59943942      -1.20308335       0.00000000
Si       1.57713264      -1.70318466       1.25996803       0.00000000
Si      -1.26307773      -0.13170465      -3.43949131       0.00000000
Si       0.41922315       2.29019874       3.05603767       0.00000000
Si      -2.34018882      -0.55716687       3.05196071       0.00000000
Si      -0.64632204       2.19138360      -3.24070485       0.00000000
Si       2.88940617       0.77076135      -2.68576935       0.00000000
Si       2.01039777       3.48917858      -0.55937746       0.00000000
