10
Lattice="16.28999089631971 0.0 0.0 0.0 16.28999089631971 0.0 0.0 0.0 34.433804113860816" Properties=species:S:1:pos:R:3:initial_magmoms:R:1 pbc="T T T"
Si      -1.35703845       1.35729909      -1.35758792       0.00000000
Si       1.35834165       1.35752715       1.35655490       0.00000000
Si       1.35804843      -1.35790182      -1.35758792       0.00000000
Si      -1.35958458      -1.35770634       1.35741575       0.00000000
Si      -2.71300187       0.00001629       2.71180132       0.00000000
Si       2.71309950      -0.00193851       2.71558905       0.00000000
Si      -2.71427740       2.71492398      -0.00086085       0.00000000
Si       0.00001629       2.71484253      -2.71438386       0.00000000
Si      -2.71467428      -2.71521720      -0.00006887       0.00000000
Si       2.71451673      -2.71551042      -0.00082641       0.00000000
