10
Lattice="16.28999089631971 0.0 0.0 0.0 16.28999089631971 0.0 0.0 0.0 34.433804113860816" Properties=species:S:1:pos:R:3:initial_magmoms:R:1 pbc="T T T"
Si       1.80558557       0.75419442      -1.36247752       0.00000000
Si      -1.94950575       1.39426110      -0.09947932       0.00000000
Si       0.84479940      -0.22806000       2.23458297       0.00000000
Si      -0.94387518      -1.94271363      -1.16031655       0.00000000
Si       2.57394122      -1.56248141       1.41199336       0.00000000
Si       0.37893798       2.00397951      -2.76210914       0.00000000
Si      -1.11521340       3.19844376      -1.39408777       0.00000000
Si      -2.33927658      -0.74740475      -2.74926532       0.00000000
Si       1.99903779       3.04507341       1.09547766       0.00000000
Si      -3.00638466       1.32530553       2.03497009       0.00000000
