10
Lattice="16.28999089631971 0.0 0.0 0.0 16.28999089631971 0.0 0.0 0.0 34.433804113860816" Properties=species:S:1:pos:R:3:initial_magmoms:R:1 pbc="T T T"
Si       0.83429235       1.80418266      -1.29460846       0.00000000
Si      -1.05687891      -0.06895557       2.13444941       0.00000000
Si       1.94950575      -1.39426110       0.09947932       0.00000000
Si      -1.83120777      -0.85804317      -1.34784315       0.00000000
Si      -1.44122517       2.20617099       1.51167928       0.00000000
Si      -0.38977083      -2.14166585      -2.64978601       0.00000000
Si       2.32844373       0.60971841      -2.66262982       0.00000000
Si       1.00563057      -3.33697473      -1.06083723       0.00000000
Si      -2.30850477      -2.06105967       1.97632929       0.00000000
Si       2.19115161       3.12992802       0.11810801       0.00000000
