10
Lattice="16.28999089631971 0.0 0.0 0.0 16.28999089631971 0.0 0.0 0.0 34.433804113860816" Properties=species:S:1:pos:R:3:initial_magmoms:R:1 pbc="T T T"
Si       1.72914182      -1.33442141      -0.82258961       0.00000000
Si      -1.60432065      -1.06947271       1.33751300       0.00000000
Si       0.69680475       1.67712066       1.54432254       0.00000000
Si      -0.84479940       0.22806000      -2.23458297       0.00000000
Si       0.34049358      -3.24023480      -0.76494739       0.00000000
Si      -2.89241982       0.84102012       1.96958026       0.00000000
Si       1.15423839       3.27313341      -1.13910531       0.00000000
Si      -0.28878912      -2.60024957       2.65364260       0.00000000
Si      -1.27509975       2.40098310       2.55908732       0.00000000
Si       1.67777130       0.43686522       3.37630525       0.00000000
