10
Lattice="16.28999089631971 0.0 0.0 0.0 16.28999089631971 0.0 0.0 0.0 34.433804113860816" Properties=species:S:1:pos:R:3:initial_magmoms:R:1 pbc="T T T"
Si      -1.55463615       0.56246601      -1.69049412       0.00000000
Si       1.10208366       1.86026098       0.99083327       0.00000000
Si      -0.90831411      -1.62891759       1.55021073       0.00000000
Si       1.98109206      -0.85815624      -1.13555863       0.00000000
Si       3.07679004       0.18623054       0.96573101       0.00000000
Si      -2.17139184      -1.76062224      -1.88928059       0.00000000
Si      -2.98033695      -2.22835701       0.34712737       0.00000000
Si       0.64283598       3.78430546      -0.39612670       0.00000000
Si      -2.10074211      -0.52182897       3.37207922       0.00000000
Si      -0.44623197      -3.34834338      -2.28774879       0.00000000
