10
Lattice="16.28999089631971 0.0 0.0 0.0 16.28999089631971 0.0 0.0 0.0 34.433804113860816" Properties=species:S:1:pos:R:3:initial_magmoms:R:1 pbc="T T T"
Si      -1.41747435       1.21777524       1.51228531       0.00000000
Si      -0.80923833      -1.71857871      -1.49487010       0.00000000
Si       0.85538790       1.84573845      -1.31150999       0.00000000
Si       1.32444216      -1.47061233       1.50741982       0.00000000
Si      -2.55327831      -2.73732273       0.01629409       0.00000000
Si       2.67682167       2.65237038       0.05078645       0.00000000
Si      -2.87880138       2.46286881       0.02426207       0.00000000
Si      -0.99365742       3.52391796      -1.20965474       0.00000000
Si      -0.04546539       2.58698232       2.89105004       0.00000000
Si       0.78902244      -3.59288982      -1.24756638       0.00000000
