10
Lattice="16.28999089631971 0.0 0.0 0.0 16.28999089631971 0.0 0.0 0.0 34.433804113860816" Properties=species:S:1:pos:R:3:initial_magmoms:R:1 pbc="T T T"
Si       1.35243545       1.34254035      -1.35562519       0.00000000
Si      -1.49415138       1.19446425       1.36802137       0.00000000
Si       1.42664759      -1.24978509       1.39963162       0.00000000
Si      -1.36153449      -1.37575566      -1.34973701       0.00000000
Si      -0.37893798      -2.00397951       2.76210914       0.00000000
Si      -2.32844373      -0.60971841       2.66262982       0.00000000
Si      -0.13729212       2.52020961       2.78073784       0.00000000
Si       2.70665585       2.67812487       0.01232731       0.00000000
Si      -0.00474039       2.69941590      -2.71090605       0.00000000
Si      -2.71823085       2.69371440       0.00320235       0.00000000
