10
Lattice="16.28999089631971 0.0 0.0 0.0 16.28999089631971 0.0 0.0 0.0 34.433804113860816" Properties=species:S:1:pos:R:3:initial_magmoms:R:1 pbc="T T T"
Si      -0.68538546       0.15148071       2.19040437       0.00000000
Si       0.71721612      -2.29921947      -0.18256813       0.00000000
Si       2.02810500       1.12316292      -0.73967296       0.00000000
Si      -1.72434537       0.69229242      -1.58622851       0.00000000
Si      -0.09244575      -0.15633513      -3.08675123       0.00000000
Si       0.20044845      -2.39995683      -2.45513161       0.00000000
Si      -2.65193055      -1.20166443       1.93376909       0.00000000
Si       1.13070519      -0.70561764       3.36060342       0.00000000
Si      -3.06613638      -2.14013133      -0.12478818       0.00000000
Si      -2.15614440       1.98728226       2.45110285       0.00000000
