10
Lattice="16.28999089631971 0.0 0.0 0.0 16.28999089631971 0.0 0.0 0.0 34.433804113860816" Properties=species:S:1:pos:R:3:initial_magmoms:R:1 pbc="T T T"
Si       1.35214560      -1.35467640      -1.36171998       0.00000000
Si      -1.36713825      -1.35729909       1.35521199       0.00000000
Si      -1.36226754       1.36278882      -1.36103130       0.00000000
Si       1.36895363       1.35430173       1.36709165       0.00000000
Si      -0.06820623       2.53878021       2.76978788       0.00000000
Si      -2.60881092       0.04593780       2.78621282       0.00000000
Si       2.70973466      -2.71050939      -0.00216933       0.00000000
Si       2.71211300       2.71283886      -0.00241037       0.00000000
Si       2.70993014       0.00286704      -2.71858479       0.00000000
Si      -2.71798650      -2.71221984      -0.00378772       0.00000000
