10
Lattice="16.28999089631971 0.0 0.0 0.0 16.28999089631971 0.0 0.0 0.0 34.433804113860816" Properties=species:S:1:pos:R:3:initial_magmoms:R:1 pbc="T T T"
Si       1.35737965       1.35474156      -1.35745018       0.00000000
Si      -1.35749457      -1.35993807      -1.35731245       0.00000000
Si      -1.36317978       1.35641943       1.35562519       0.00000000
Si       1.36226754      -1.36278882       1.36103130       0.00000000
Si      -2.68990254       0.00770517       2.73115313       0.00000000
Si      -2.71568961       2.71106325      -0.00034434       0.00000000
Si      -0.00045612       2.71287144      -2.71486593       0.00000000
Si       2.71488393      -0.00234576      -2.71459046       0.00000000
Si      -2.71521720      -0.00231318      -2.71496924       0.00000000
Si       2.71543616       2.71539639       0.00096415       0.00000000
