10
Lattice="16.28999089631971 0.0 0.0 0.0 16.28999089631971 0.0 0.0 0.0 34.433804113860816" Properties=species:S:1:pos:R:3:initial_magmoms:R:1 pbc="T T T"
Si       1.36197716       1.35401937      -1.39284815       0.00000000
Si      -1.35827649      -1.35984033      -1.39536182       0.00000000
Si       1.29896460      -1.54026837       1.37983217       0.00000000
Si      -1.31149161       1.49492338       1.56102295       0.00000000
Si       2.66541445      -0.15682383       2.69630610       0.00000000
Si      -2.68499925      -2.70855459      -0.01983388       0.00000000
Si      -2.70689301       2.69023227      -0.02792583       0.00000000
Si       2.70242859       2.70692137      -0.02895885       0.00000000
Si       0.00358380       2.70913030      -2.75119362       0.00000000
Si       2.73612446      -2.72474685      -0.02286406       0.00000000
