10
Lattice="16.28999089631971 0.0 0.0 0.0 16.28999089631971 0.0 0.0 0.0 34.433804113860816" Properties=species:S:1:pos:R:3:initial_magmoms:R:1 pbc="T T T"
Si      -0.15931620      -0.84488085      -2.18224356       0.00000000
Si       2.32839486       0.41472711      -0.01153533       0.00000000
Si      -0.28929411      -1.92306708       1.35955065       0.00000000
Si      -1.72515987       1.58772114       0.39846820       0.00000000
Si       1.26586332      -2.77794999      -1.76831456       0.00000000
Si       2.42732403       2.49018714       1.15219016       0.00000000
Si       1.82718414      -3.14323695       0.53868273       0.00000000
Si      -2.55766032      -2.54446542       0.81091654       0.00000000
Si      -2.95336071       1.74721653      -1.65561266       0.00000000
Si      -2.53410498       1.11998637       2.63487616       0.00000000
