10
Lattice="16.28999089631971 0.0 0.0 0.0 16.28999089631971 0.0 0.0 0.0 34.433804113860816" Properties=species:S:1:pos:R:3:initial_magmoms:R:1 pbc="T T T"
Si      -0.10852235       2.14140195       0.93907923       0.00000000
Si       0.80536457       0.38612187      -2.18424072       0.00000000
Si       1.93791053      -0.82148841       1.11018090       0.00000000
Si      -2.09941026      -0.91667088       0.77011246       0.00000000
Si       0.19291921       1.55023785       3.15999197       0.00000000
Si       1.19384849      -0.59517144       3.34934356       0.00000000
Si       2.36852039       2.13900732      -1.74383212       0.00000000
Si      -1.20201045       0.91210968      -3.33016392       0.00000000
Si       0.13415955      -3.67370451      -0.23704244       0.00000000
Si       1.90207253       3.16873080       0.33855335       0.00000000
