10
Lattice="16.28999089631971 0.0 0.0 0.0 16.28999089631971 0.0 0.0 0.0 34.433804113860816" Properties=species:S:1:pos:R:3:initial_magmoms:R:1 pbc="T T T"
Si      -0.07768538       1.02920220       2.08934110       0.00000000
Si       0.75884196      -2.20333653       0.29953983       0.00000000
Si      -2.34648720      -0.12007359      -0.40049980       0.00000000
Si       1.44573424       1.62777825      -1.00009597       0.00000000
Si      -1.07440110      -3.39288772      -0.67634916       0.00000000
Si      -2.72312829       1.90664676      -1.45500121       0.00000000
Si       2.17840957       1.63106883       2.50247811       0.00000000
Si      -1.07542737       3.13145928       1.75471320       0.00000000
Si      -2.68240329      -1.98953028      -1.78277677       0.00000000
Si       0.98168916      -2.67836922       2.63721766       0.00000000
