10
Lattice="16.28999089631971 0.0 0.0 0.0 16.28999089631971 0.0 0.0 0.0 34.433804113860816" Properties=species:S:1:pos:R:3:initial_magmoms:R:1 pbc="T T T"
Si       1.34921436       1.36241415      -1.32585715       0.00000000
Si       1.35397104      -1.35860229       1.36085913       0.00000000
Si      -1.35998916       1.35705474       1.36027376       0.00000000
Si      -1.37768995      -1.36647036      -1.37619596       0.00000000
Si      -0.01480272       2.67084324      -2.66595958       0.00000000
Si       2.70514509       0.10696014      -2.70470796       0.00000000
Si       2.70698586      -2.71106325       0.00168726       0.00000000
Si       2.70969000       2.71599912       0.00530281       0.00000000
Si       2.71140045      -0.00087966       2.71762064       0.00000000
Si      -2.71842211       2.71096551       0.00282357       0.00000000
