10
Lattice="16.28999089631971 0.0 0.0 0.0 16.28999089631971 0.0 0.0 0.0 34.433804113860816" Properties=species:S:1:pos:R:3:initial_magmoms:R:1 pbc="T T T"
Si      -1.35590032      -1.35803214       1.35738132       0.00000000
Si       1.35683495       1.35720135       1.35738132       0.00000000
Si       1.35723895      -1.35762489      -1.35672707       0.00000000
Si      -1.35814834       1.35747828      -1.35676151       0.00000000
Si       0.00127552      -2.71490769       2.71266217       0.00000000
Si       2.71429369      -0.00008145      -2.71352302       0.00000000
Si      -0.00175455      -2.71362078      -2.71462490       0.00000000
Si      -2.71329715      -0.00034209       2.71531357       0.00000000
Si      -2.71424197      -0.00244350      -2.71476263       0.00000000
Si       2.71427740      -2.71492398       0.00086085       0.00000000
