10
Lattice="16.28999089631971 0.0 0.0 0.0 16.28999089631971 0.0 0.0 0.0 34.433804113860816" Properties=species:S:1:pos:R:3:initial_magmoms:R:1 pbc="T T T"
Si       0.65878389       1.43731557       1.75922404       0.00000000
Si      -0.25593219       1.92893148      -1.39026562       0.00000000
Si       1.80390573      -1.48253661      -0.61385177       0.00000000
Si      -2.60982809      -1.45569069      -0.20302182       0.00000000
Si       2.25430794      -0.22727808      -2.60498760       0.00000000
Si       2.03183541       2.14430157      -1.85608638       0.00000000
Si       0.60326757      -3.46708215      -0.01917964       0.00000000
Si      -1.27192809       2.63840985       2.09984342       0.00000000
Si      -3.34569626       0.36258282      -1.45689507       0.00000000
Si      -2.84684759      -1.05086790       2.10710895       0.00000000
