10
Lattice="16.28999089631971 0.0 0.0 0.0 16.28999089631971 0.0 0.0 0.0 34.433804113860816" Properties=species:S:1:pos:R:3:initial_magmoms:R:1 pbc="T T T"
Si       2.28776760       0.21537009      -0.46582076       0.00000000
Si      -1.20643251       1.55067768       1.30280371       0.00000000
Si      -1.69665563      -0.53338347      -1.57489978       0.00000000
Si       0.25593219      -1.92893148       1.39026562       0.00000000
Si       0.91471608      -0.49161591       3.14948965       0.00000000
Si      -3.08976407      -1.56634866      -0.06662945       0.00000000
Si       2.51024013      -2.15620956      -1.21472199       0.00000000
Si      -3.23591795       0.22618665       1.46037288       0.00000000
Si      -1.01599590       0.70947837       3.49010903       0.00000000
Si       2.33455248       1.01805984      -2.70587871       0.00000000
