10
Lattice="16.28999089631971 0.0 0.0 0.0 16.28999089631971 0.0 0.0 0.0 34.433804113860816" Properties=species:S:1:pos:R:3:initial_magmoms:R:1 pbc="T T T"
Si      -1.09954894      -1.49297850      -1.40527877       0.00000000
Si       2.17297197      -0.80861931      -0.30928460       0.00000000
Si      -0.91926913      -0.46641528       2.10280472       0.00000000
Si      -0.70382900       2.09741895      -0.77827328       0.00000000
Si       1.69153731      -3.12943932       0.24289619       0.00000000
Si      -2.70649295       2.36222919       0.51196209       0.00000000
Si       2.36115405      -0.60450561      -2.69134763       0.00000000
Si      -3.27473702      -1.49806098      -0.61485035       0.00000000
Si      -2.61978128      -2.13470676       1.53888200       0.00000000
Si       1.07996184      -1.48010940       3.25182698       0.00000000
