10
Lattice="16.28999089631971 0.0 0.0 0.0 16.28999089631971 0.0 0.0 0.0 34.433804113860816" Properties=species:S:1:pos:R:3:initial_magmoms:R:1 pbc="T T T"
Si       1.35671265      -1.35273789      -1.35610727       0.00000000
Si      -1.35599426      -1.35493704       1.35645160       0.00000000
Si       1.35845568       1.36016613       1.35600396       0.00000000
Si      -1.35457214       1.36326123      -1.35896527       0.00000000
Si      -0.00376299      -2.70632286      -2.68726723       0.00000000
Si      -2.71296651      -2.71168227      -0.00113632       0.00000000
Si       0.00131949      -2.71251306       2.71348858       0.00000000
Si       2.71384884      -2.71300176      -0.00137735       0.00000000
Si      -2.71349854       0.00215028       2.71359188       0.00000000
Si       2.71218726       0.01514970      -2.71620541       0.00000000
