10
Lattice="16.28999089631971 0.0 0.0 0.0 16.28999089631971 0.0 0.0 0.0 34.433804113860816" Properties=species:S:1:pos:R:3:initial_magmoms:R:1 pbc="T T T"
Si      -1.36644985      -1.38344454      -1.31647393       0.00000000
Si      -1.84773790       0.12616605       1.49466897       0.00000000
Si       1.33663848       1.48652766      -1.31134329       0.00000000
Si      -0.45908967       2.03197943       1.43702675       0.00000000
Si       0.94162227       1.18969128       3.16264337       0.00000000
Si       2.92468542       1.40708133       1.68832479       0.00000000
Si      -0.90439962      -0.33935328       3.54144986       0.00000000
Si       0.07071000      -2.56792302      -2.71917016       0.00000000
Si      -2.36505943      -2.89253385       0.26445176       0.00000000
Si      -2.66541445       0.15682383      -2.69630610       0.00000000
