10
Lattice="16.28999089631971 0.0 0.0 0.0 16.28999089631971 0.0 0.0 0.0 34.433804113860816" Properties=species:S:1:pos:R:3:initial_magmoms:R:1 pbc="T T T"
Si      -1.40071194       0.84228815      -1.72561662       0.00000000
Si       0.47765538       1.86397089       1.42063625       0.00000000
Si      -1.84602190      -1.52904456       0.37880649       0.00000000
Si       1.98306315       0.21739005      -1.47431858       0.00000000
Si       1.22706054      -1.54381959       2.23206930       0.00000000
Si       2.22407370       0.64393134       2.47510322       0.00000000
Si      -2.78936018      -1.06352523      -1.66797440       0.00000000
Si       3.37023810       0.87097484       0.41072665       0.00000000
Si      -0.94162227      -1.18969128      -3.16264337       0.00000000
Si      -3.41864288      -0.42354000       1.75061558       0.00000000
