10
Lattice="16.28999089631971 0.0 0.0 0.0 16.28999089631971 0.0 0.0 0.0 34.433804113860816" Properties=species:S:1:pos:R:3:initial_magmoms:R:1 pbc="T T T"
Si      -0.88709964      -1.92726990       0.98659791       0.00000000
Si       1.45798758      -0.64049022      -1.72850906       0.00000000
Si       0.96031179       1.37246738       1.68532905       0.00000000
Si      -1.84013469       1.42022151      -0.59360468       0.00000000
Si       2.45500074       1.54726071      -1.48547514       0.00000000
Si      -0.98454968       2.11196007       2.77068316       0.00000000
Si      -2.90909168       1.75764769       1.47927705       0.00000000
Si      -0.77145042      -3.59657136      -0.59632495       0.00000000
Si       2.49755022       2.83061297       0.54808317       0.00000000
Si       0.70858242       2.76730026      -2.53994211       0.00000000
