10
Lattice="16.28999089631971 0.0 0.0 0.0 16.28999089631971 0.0 0.0 0.0 34.433804113860816" Properties=species:S:1:pos:R:3:initial_magmoms:R:1 pbc="T T T"
Si      -1.82382677       0.01203831       1.46498701       0.00000000
Si       0.38393901      -2.32885098       0.18425539       0.00000000
Si       2.19111903       0.94141539       0.17196251       0.00000000
Si      -1.26087369       0.77310711      -1.90880456       0.00000000
Si       3.13649289       0.05232348      -1.82657659       0.00000000
Si       1.73429856       3.15802827       0.63609602       0.00000000
Si      -0.92949437      -0.35694648       3.63269950       0.00000000
Si      -1.14522447      -0.89619435      -3.49172742       0.00000000
Si      -3.32240156      -1.70974953       0.66357421       0.00000000
Si      -1.62665587      -3.35617983       0.78478127       0.00000000
