10
Lattice="10.86 0.0 0.0 0.0 10.86 0.0 0.0 0.0 10.86" Properties=species:S:1:pos:R:3:initial_magmoms:R:1 pbc="T T T"
Si       1.17471534       1.41080088       1.29462060       0.00000000
Si       1.17471534      -1.30419912      -1.42037940       0.00000000
Si      -1.54028466       1.41080088      -1.42037940       0.00000000
Si      -2.60276190      -2.50001544      -0.01306458       0.00000000
Si      -0.35100606      -2.52478710       2.60742084       0.00000000
Si       2.53221534       0.05330088       2.65212060       0.00000000
Si       2.53221534      -2.66169912      -0.06287940       0.00000000
Si       2.53221534       2.76830088      -0.06287940       0.00000000
Si       2.53221534       0.05330088      -2.77787940       0.00000000
Si      -0.19056042      -2.62361310      -2.79400650       0.00000000
