10
Lattice="16.28999089631971 0.0 0.0 0.0 16.28999089631971 0.0 0.0 0.0 34.64500226677339" Properties=species:S:1:pos:R:3:initial_magmoms:R:1 pbc="T T T"
Si      -1.36436243       1.40338920      -1.29179506       0.00000000
Si      -1.35882058      -1.35355062       1.35853523       0.00000000
Si       1.35689184       1.36416614       1.36141077       0.00000000
Si       1.41232671      -1.25804235      -1.41774704       0.00000000
Si      -2.71234106      -2.70755913      -0.02482662       0.00000000
Si       2.73375522      -2.69092704      -0.02128244       0.00000000
Si       2.71345788       2.71154462      -0.01191442       0.00000000
Si      -0.00179190      -2.70742881       2.71897594       0.00000000
Si       2.71296918       0.00756033       2.72022316       0.00000000
Si      -2.71712004       0.00917044       2.71897594       0.00000000
