10
Lattice="16.28999089631971 0.0 0.0 0.0 16.28999089631971 0.0 0.0 0.0 34.64500226677339" Properties=species:S:1:pos:R:3:initial_magmoms:R:1 pbc="T T T"
Si       0.29988261       2.21881203      -0.58751028       0.00000000
Si       0.66288897      -0.42811749       2.18620480       0.00000000
Si      -2.29557770      -0.46302696      -0.31641298       0.00000000
Si       1.52767620      -1.45521828      -1.11553505       0.00000000
Si      -1.78895477       2.98012518       0.25145357       0.00000000
Si      -0.09241317       1.60443468      -3.13360756       0.00000000
Si       1.51594740      -0.31543956      -3.22434287       0.00000000
Si      -0.07532496      -2.62371627       2.62837921       0.00000000
Si      -0.37450710       1.20604644       3.53774174       0.00000000
Si       3.36722445      -1.76034627       0.42942504       0.00000000
