10
Lattice="16.28999089631971 0.0 0.0 0.0 16.28999089631971 0.0 0.0 0.0 34.64500226677339" Properties=species:S:1:pos:R:3:initial_magmoms:R:1 pbc="T T T"
Si       0.21030390       2.19699062      -0.71282132       0.00000000
Si       2.14032681      -0.77540400       0.50581732       0.00000000
Si      -1.29153636      -1.50868206      -1.29565452       0.00000000
Si      -1.13751441       0.31464135       2.09217821       0.00000000
Si       0.20281050      -1.21805217       3.17777996       0.00000000
Si      -3.14580828      -0.61020711       1.36903267       0.00000000
Si      -2.27212431      -2.63601522       0.54053163       0.00000000
Si       2.23458075      -0.12753441       2.78805812       0.00000000
Si      -2.00533972       2.99940344      -0.24268838       0.00000000
Si      -2.99310228      -0.09034434      -2.18215133       0.00000000
