10
Lattice="16.28999089631971 0.0 0.0 0.0 16.28999089631971 0.0 0.0 0.0 34.64500226677339" Properties=species:S:1:pos:R:3:initial_magmoms:R:1 pbc="T T T"
Si       0.43761456       0.10205685      -2.23612828       0.00000000
Si      -2.34008456      -0.10881720       0.33872438       0.00000000
Si       0.66632616       2.13107476       0.91088691       0.00000000
Si       0.65202354      -2.32746633       0.06728063       0.00000000
Si      -2.04421907       0.07851780       2.77565520       0.00000000
Si      -1.43987147       2.55603851       2.08926803       0.00000000
Si      -2.81197491      -2.33246736      -0.32143651       0.00000000
Si      -0.98106525      -3.24171000      -1.42820637       0.00000000
Si      -0.40650066      -1.85642469      -3.26266027       0.00000000
Si       2.46938481       1.19257461      -2.62585012       0.00000000
