10
Lattice="16.28999089631971 0.0 0.0 0.0 16.28999089631971 0.0 0.0 0.0 34.64500226677339" Properties=species:S:1:pos:R:3:initial_magmoms:R:1 pbc="T T T"
Si      -0.38535624       2.22229809       0.66296713       0.00000000
Si      -2.17587159      -0.90451854       0.08955738       0.00000000
Si       1.51356906      -1.06627824       1.54696951       0.00000000
Si       0.50994216       0.45631548      -2.32041961       0.00000000
Si      -0.97301799       2.32785729      -1.69448801       0.00000000
Si      -1.42671078      -2.88503135      -1.05559916       0.00000000
Si      -0.23930010      -1.79817328      -2.90633622       0.00000000
Si       1.24841673       0.36299007       3.41256928       0.00000000
Si      -2.59597440      -1.08543528       2.42923963       0.00000000
Si       2.86622550       0.38333628      -2.61060631       0.00000000
