10
Lattice="16.28999089631971 0.0 0.0 0.0 16.28999089631971 0.0 0.0 0.0 34.64500226677339" Properties=species:S:1:pos:R:3:initial_magmoms:R:1 pbc="T T T"
Si       1.35539316       1.35628911      -1.35711479       0.00000000
Si       1.35290079      -1.35927018       1.35756517       0.00000000
Si      -1.36057338       1.35156501       1.36227690       0.00000000
Si      -1.35995436      -1.35832536      -1.35683763       0.00000000
Si       2.71300176      -2.71340901      -0.00006929       0.00000000
Si       2.71311579      -0.00092853      -2.71509570       0.00000000
Si       2.71306692       2.71630863       0.00062361       0.00000000
Si      -0.00298107       2.71479366      -2.71474925       0.00000000
Si      -0.00190593      -2.71621089      -2.71461067       0.00000000
Si      -2.71630048      -2.71459818       0.00162832       0.00000000
