10
Lattice="16.28999089631971 0.0 0.0 0.0 16.28999089631971 0.0 0.0 0.0 34.64500226677339" Properties=species:S:1:pos:R:3:initial_magmoms:R:1 pbc="T T T"
Si      -1.40085855       1.03456161      -1.58362394       0.00000000
Si       2.14166259       1.03161312       0.08865661       0.00000000
Si      -1.31732343       0.55783476       1.93291505       0.00000000
Si       0.77931360      -2.23544412      -0.46538658       0.00000000
Si       1.94486310      -2.30814639       1.54281210       0.00000000
Si       0.11761380       1.97613990      -3.07956133       0.00000000
Si       3.25006677      -0.31498344       1.66379252       0.00000000
Si      -1.17380853      -3.35300328      -1.10403290       0.00000000
Si       1.72400328       3.36015459       0.30570767       0.00000000
Si      -1.92922470       2.86397748       1.58525225       0.00000000
