10
Lattice="16.28999089631971 0.0 0.0 0.0 16.28999089631971 0.0 0.0 0.0 34.64500226677339" Properties=species:S:1:pos:R:3:initial_magmoms:R:1 pbc="T T T"
Si      -1.69868862      -0.96080049       1.34197491       0.00000000
Si       0.57544425       1.76156802       1.48381163       0.00000000
Si       2.20568229      -0.78985323      -0.53311759       0.00000000
Si       1.90135251       0.63198684      -2.41967760       0.00000000
Si       0.10914300       2.36767005      -2.19493535       0.00000000
Si       0.72066960      -2.83946103       1.81172676       0.00000000
Si       2.31505335       0.63232893       2.68436557       0.00000000
Si      -3.53823687      -0.65567250      -0.20298518       0.00000000
Si       0.53810757       3.67577334      -0.03814417       0.00000000
Si       0.30372705      -2.99579616      -2.30822457       0.00000000
