10
Lattice="16.28999089631971 0.0 0.0 0.0 16.28999089631971 0.0 0.0 0.0 34.64500226677339" Properties=species:S:1:pos:R:3:initial_magmoms:R:1 pbc="T T T"
Si      -1.03882959       0.43127775      -2.02524403       0.00000000
Si      -1.60234956      -0.68908329       1.54991433       0.00000000
Si       1.02490164      -2.02380444      -0.57472626       0.00000000
Si       2.16981171       0.53976915       0.79565757       0.00000000
Si       1.67749533       0.86578092      -1.91604292       0.00000000
Si      -0.03935664      -1.52669880       3.11074185       0.00000000
Si       1.84332753      -1.39400046      -2.69985189       0.00000000
Si      -0.77113602      -3.56575068      -0.46091737       0.00000000
Si      -0.74186289       2.74444146      -2.38579477       0.00000000
Si       3.10902795      -1.89001467       0.77047064       0.00000000
