10
Lattice="16.28999089631971 0.0 0.0 0.0 16.28999089631971 0.0 0.0 0.0 34.64500226677339" Properties=species:S:1:pos:R:3:initial_magmoms:R:1 pbc="T T T"
Si      -1.99674675       1.07849574       0.49746787       0.00000000
Si      -0.76173669      -1.86251715      -1.18932895       0.00000000
Si       1.38147345       1.28177865      -1.41517984       0.00000000
Si       0.84465279      -0.47850246       2.19594005       0.00000000
Si       3.32651574       0.66191157      -0.32341128       0.00000000
Si       2.69441487       0.92159046       1.91389493       0.00000000
Si      -3.23951085      -0.81046008       1.18035589       0.00000000
Si      -2.28020904      -2.80409544       0.30660844       0.00000000
Si       1.26231210      -2.80704393       1.97888899       0.00000000
Si      -1.43211906       2.41351011       2.35897952       0.00000000
