10
Lattice="16.28999089631971 0.0 0.0 0.0 16.28999089631971 0.0 0.0 0.0 34.64500226677339" Properties=species:S:1:pos:R:3:initial_magmoms:R:1 pbc="T T T"
Si      -1.35617508       1.35274701       1.35607544       0.00000000
Si       1.35782037       1.35438053      -1.35721872       0.00000000
Si      -1.35713619      -1.36057338      -1.35735730       0.00000000
Si       1.35891180      -1.36243044       1.36189580       0.00000000
Si      -2.68760565       0.00172674       2.73591736       0.00000000
Si      -2.71205694       2.71337547      -0.00076219       0.00000000
Si      -0.00004887       2.71213580      -2.71440280       0.00000000
Si      -2.71427238      -0.00345348      -2.71450673       0.00000000
Si       2.71715571       2.71176928       0.00006929       0.00000000
Si       2.71560816      -0.00364896      -2.71461067       0.00000000
