10
Lattice="16.28999089631971 0.0 0.0 0.0 16.28999089631971 0.0 0.0 0.0 34.64500226677339" Properties=species:S:1:pos:R:3:initial_magmoms:R:1 pbc="T T T"
Si       0.80369973       1.77934206      -1.43669440       0.00000000
Si       1.79220951      -1.73568321      -0.22474226       0.00000000
Si      -1.87624962      -0.96671376      -1.40499421       0.00000000
Si       0.42896457       1.30810329       2.15679118       0.00000000
Si      -0.10914300      -2.36767005       2.19493535       0.00000000
Si       2.11367637       0.37382292      -2.89424511       0.00000000
Si      -1.69104861       2.63085685       1.89248431       0.00000000
Si       0.46630125      -0.60610203       3.67874698       0.00000000
Si      -0.62257122      -2.37068370      -2.88721217       0.00000000
Si       3.59989452      -0.76271409      -1.40998309       0.00000000
