10
Lattice="16.28999089631971 0.0 0.0 0.0 16.28999089631971 0.0 0.0 0.0 34.64500226677339" Properties=species:S:1:pos:R:3:initial_magmoms:R:1 pbc="T T T"
Si      -1.49711616      -1.38852702       1.08729936       0.00000000
Si       2.04273342      -0.23711724       1.15031865       0.00000000
Si      -0.37613610      -0.03776022      -2.38724986       0.00000000
Si      -0.30348270       2.35121715       0.49961586       0.00000000
Si       2.93755941       1.84062339       0.32531675       0.00000000
Si       1.33545420       3.07534023      -1.00352770       0.00000000
Si       0.46094184       2.06700552      -2.95501247       0.00000000
Si      -3.08511423      -0.04991256       2.14504651       0.00000000
Si      -2.69794980      -0.01622484      -2.65339292       0.00000000
Si       2.85210207      -2.47529808       0.86051305       0.00000000
