10
Lattice="16.28999089631971 0.0 0.0 0.0 16.28999089631971 0.0 0.0 0.0 34.64500226677339" Properties=species:S:1:pos:R:3:initial_magmoms:R:1 pbc="T T T"
Si      -2.14032681       0.77540400      -0.50581732       0.00000000
Si       1.63893690       0.72412308      -1.50314355       0.00000000
Si       0.09425394       0.64786959       2.28224080       0.00000000
Si       0.30348270      -2.35121715      -0.49961586       0.00000000
Si       3.24104211      -0.51059376      -0.17429910       0.00000000
Si      -1.93751631      -0.44264817       2.67196265       0.00000000
Si       0.76442454      -0.28421163      -3.45462833       0.00000000
Si       2.34621612      -2.58833439       0.65070280       0.00000000
Si      -1.93002291       2.97239462      -1.21863864       0.00000000
Si      -0.07265340      -2.38897737      -2.88686572       0.00000000
