10
Lattice="16.28999089631971 0.0 0.0 0.0 16.28999089631971 0.0 0.0 0.0 34.64500226677339" Properties=species:S:1:pos:R:3:initial_magmoms:R:1 pbc="T T T"
Si       1.33301070       1.35953082       1.38125197       0.00000000
Si      -1.38471516      -1.35709384       1.38017798       0.00000000
Si      -1.22064228       1.47362598      -1.42807126       0.00000000
Si       1.61311725      -1.19307308      -1.39751435       0.00000000
Si       2.68996770       2.70368388       0.01295377       0.00000000
Si       2.69948106      -2.70422864       0.03613476       0.00000000
Si       2.69224830       0.00218286       2.74235094       0.00000000
Si      -2.73372264      -2.70148442      -0.01012328       0.00000000
Si      -2.72600118       2.71982727       0.00154863       0.00000000
Si      -0.02124216      -2.71309040       2.74110372       0.00000000
