10
Lattice="16.28999089631971 0.0 0.0 0.0 16.28999089631971 0.0 0.0 0.0 34.64500226677339" Properties=species:S:1:pos:R:3:initial_magmoms:R:1 pbc="T T T"
Si      -1.35782037      -1.35438053       1.35721872       0.00000000
Si      -1.35786924       1.35775527      -1.35718408       0.00000000
Si       1.35778779      -1.35802949      -1.35739195       0.00000000
Si       1.35933534       1.35738875       1.35728801       0.00000000
Si       2.70938538      -0.00033944       2.71606576       0.00000000
Si      -2.71399545      -0.00163352       2.71329416       0.00000000
Si      -2.71373481       0.00127327      -2.71381383       0.00000000
Si       0.00140094      -2.71319459      -2.71461067       0.00000000
Si       2.71484253      -2.71477472       0.00006929       0.00000000
Si      -2.71495656       2.71480350       0.00003465       0.00000000
