10
Lattice="16.28999089631971 0.0 0.0 0.0 16.28999089631971 0.0 0.0 0.0 34.64500226677339" Properties=species:S:1:pos:R:3:initial_magmoms:R:1 pbc="T T T"
Si       1.36547667       1.33829680      -1.37391762       0.00000000
Si       1.39074246      -1.32853128       1.36342018       0.00000000
Si      -1.35457866      -1.37554293      -1.37668922       0.00000000
Si      -1.22979726       1.55540992       1.46971111       0.00000000
Si      -2.69231346      -2.71187679      -0.00391489       0.00000000
Si      -2.69659773       2.71560002       0.00076219       0.00000000
Si       0.01014867       2.69992904      -2.73532839       0.00000000
Si       2.73812094       2.70154175      -0.00543927       0.00000000
Si      -2.70462870      -0.01781474      -2.73546697       0.00000000
Si       2.72624553      -0.01609126      -2.73588271       0.00000000
