10
Lattice="16.28999089631971 0.0 0.0 0.0 16.28999089631971 0.0 0.0 0.0 34.64500226677339" Properties=species:S:1:pos:R:3:initial_magmoms:R:1 pbc="T T T"
Si       1.35005004      -1.35772819       1.35877775       0.00000000
Si       1.35537687       1.35777313      -1.35728801       0.00000000
Si      -1.35933534      -1.35738875      -1.35728801       0.00000000
Si      -1.35997065       1.35806635       1.36397450       0.00000000
Si       0.01231524      -2.69406205       2.73155209       0.00000000
Si       2.71345788       0.00006842      -2.71454138       0.00000000
Si       2.71552671      -2.71279555       0.00048503       0.00000000
Si      -2.71715571      -2.71176928      -0.00006929       0.00000000
Si      -0.00231318       2.71564237      -2.71440280       0.00000000
Si      -0.00154755      -2.71541824      -2.71467996       0.00000000
