10
Lattice="16.28999089631971 0.0 0.0 0.0 16.28999089631971 0.0 0.0 0.0 34.64500226677339" Properties=species:S:1:pos:R:3:initial_magmoms:R:1 pbc="T T T"
Si       0.83947257      -1.95971632       1.01211966       0.00000000
Si      -2.35628334       0.07297920       0.29018670       0.00000000
Si       0.78620427       2.15920692       0.61425623       0.00000000
Si       0.27251541      -1.07193087      -2.26904105       0.00000000
Si      -1.58501700       0.59971635      -2.42390429       0.00000000
Si      -0.98551242      -3.50426312      -0.03142303       0.00000000
Si      -3.10552560      -2.18150956      -0.29572990       0.00000000
Si      -2.86622550      -0.38333628       2.61060631       0.00000000
Si       0.90855846      -1.68165742       3.41305431       0.00000000
Si       2.91496518      -2.64789226      -0.27366103       0.00000000
