10
Lattice="16.28999089631971 0.0 0.0 0.0 16.28999089631971 0.0 0.0 0.0 34.64500226677339" Properties=species:S:1:pos:R:3:initial_magmoms:R:1 pbc="T T T"
Si      -1.56885732      -1.74018740      -0.29413623       0.00000000
Si       0.86226228       0.07905537       2.22951108       0.00000000
Si       1.99327698      -0.85468743      -1.01062993       0.00000000
Si      -0.61287867       2.15410815      -0.93638564       0.00000000
Si       2.14539300       2.00469627       1.67536396       0.00000000
Si       3.28958631       1.08533754      -0.37648745       0.00000000
Si      -0.16185744      -3.44120453       0.67828023       0.00000000
Si      -1.63794321      -2.01824629      -2.69507088       0.00000000
Si       1.87712928      -3.31360496      -0.52262015       0.00000000
Si       1.82663028      -0.86449401      -3.32585279       0.00000000
