10
Lattice="16.28999089631971 0.0 0.0 0.0 16.28999089631971 0.0 0.0 0.0 34.64500226677339" Properties=species:S:1:pos:R:3:initial_magmoms:R:1 pbc="T T T"
Si      -1.35071793       1.36011726       1.36009426       0.00000000
Si      -1.33991766      -1.35334062      -1.37956476       0.00000000
Si       1.36363590      -1.35542574       1.36089109       0.00000000
Si       1.37614662       1.37785707      -1.37363353       0.00000000
Si       0.16544124      -2.59954191      -2.80918465       0.00000000
Si      -2.71119357      -2.71161711       0.00277160       0.00000000
Si      -2.70966231       0.00087966       2.71686260       0.00000000
Si      -2.71109583       2.71655298      -0.00342986       0.00000000
Si       0.00438201      -2.71329498       2.71765943       0.00000000
Si       2.71738377       2.71529865      -0.00083148       0.00000000
