10
Lattice="16.28999089631971 0.0 0.0 0.0 16.28999089631971 0.0 0.0 0.0 34.64500226677339" Properties=species:S:1:pos:R:3:initial_magmoms:R:1 pbc="T T T"
Si       0.69030504      -0.38024118      -2.22774418       0.00000000
Si      -0.71228025       2.25644193       0.01430839       0.00000000
Si      -1.59355296      -1.73047041       0.30685096       0.00000000
Si       1.50803046       0.32612580       1.82205098       0.00000000
Si      -1.34438112       2.51612082       2.25161460       0.00000000
Si      -1.65214809      -0.63130266      -3.19188049       0.00000000
Si       3.44714319       0.95879682       0.73935941       0.00000000
Si      -2.77648389      -1.21251357       2.31660866       0.00000000
Si       0.75851127       2.15078499       3.13624058       0.00000000
Si       2.34207846      -2.08277424      -2.31428744       0.00000000
