10
Lattice="16.28999089631971 0.0 0.0 0.0 16.28999089631971 0.0 0.0 0.0 34.64500226677339" Properties=species:S:1:pos:R:3:initial_magmoms:R:1 pbc="T T T"
Si       0.72161442       1.80727776       1.43679283       0.00000000
Si       0.14284701       1.35951453      -2.10271030       0.00000000
Si      -1.92407706      -1.10410362       1.19329723       0.00000000
Si       1.89758952      -1.83459609      -0.02324681       0.00000000
Si       1.14038145      -0.70323930      -3.07124652       0.00000000
Si       2.00467998       0.40088061       2.90736314       0.00000000
Si      -0.71138430      -2.33031708       2.90143191       0.00000000
Si      -3.31825671      -0.16276968      -1.83143978       0.00000000
Si       3.47079627      -0.88184286       1.52347814       0.00000000
Si       0.79397460      -3.57651837       1.47181202       0.00000000
