10
Lattice="16.28999089631971 0.0 0.0 0.0 16.28999089631971 0.0 0.0 0.0 34.64500226677339" Properties=species:S:1:pos:R:3:initial_magmoms:R:1 pbc="T T T"
Si      -1.07559612       0.46455822       2.26585370       0.00000000
Si      -1.83280419       1.59591501      -0.78214601       0.00000000
Si       1.47522240       1.48853133      -1.45935225       0.00000000
Si       0.51057747      -2.17838025      -1.30902750       0.00000000
Si      -3.27044556      -0.17793567      -1.13046706       0.00000000
Si      -0.32931864       2.95692822      -1.90215027       0.00000000
Si      -0.00768888      -1.27791792      -3.44025065       0.00000000
Si       2.24575569       2.20408587       2.35956849       0.00000000
Si      -3.12880401      -2.41658892       0.00786442       0.00000000
Si       1.52800200       0.52082388      -3.68789326       0.00000000
