10
Lattice="16.28999089631971 0.0 0.0 0.0 16.28999089631971 0.0 0.0 0.0 34.64500226677339" Properties=species:S:1:pos:R:3:initial_magmoms:R:1 pbc="T T T"
Si      -1.35736425      -1.35589815       1.35773840       0.00000000
Si       1.35718506      -1.35772263      -1.35770375       0.00000000
Si      -1.35769005       1.35736425      -1.35770375       0.00000000
Si       1.35982404       1.35749457       1.35739195       0.00000000
Si       2.70902700       0.00127062       2.71422957       0.00000000
Si       0.00162900      -2.71389771      -2.71474925       0.00000000
Si      -2.71516833       0.00050499      -2.71422957       0.00000000
Si       2.71454931       2.71487511       0.00000000       0.00000000
Si      -2.71524978       2.71469592      -0.00020787       0.00000000
Si       2.71471221      -2.71533123       0.00010394       0.00000000
