10
Lattice="16.28999089631971 0.0 0.0 0.0 16.28999089631971 0.0 0.0 0.0 34.64500226677339" Properties=species:S:1:pos:R:3:initial_magmoms:R:1 pbc="T T T"
Si       1.80768501       0.97296912      -1.18524083       0.00000000
Si       0.30432978      -1.42184007       1.88656001       0.00000000
Si      -0.94912056      -1.86298956      -1.27500609       0.00000000
Si      -1.79220951       1.73568321       0.22474226       0.00000000
Si       1.79250273       0.65912598       2.02077482       0.00000000
Si      -1.90135251      -0.63198684       2.41967760       0.00000000
Si       0.32146686       2.10950613      -2.66950285       0.00000000
Si      -2.41478073      -0.63500049      -2.66246991       0.00000000
Si      -0.98850978       3.51502527      -1.21195215       0.00000000
Si      -3.66845913       0.76896945      -1.18025195       0.00000000
