10
Lattice="16.28999089631971 0.0 0.0 0.0 16.28999089631971 0.0 0.0 0.0 34.64500226677339" Properties=species:S:1:pos:R:3:initial_magmoms:R:1 pbc="T T T"
Si      -0.89629209       1.56278115       1.49073964       0.00000000
Si       0.02979441       1.94603598      -1.51031507       0.00000000
Si       1.84137273      -1.14562846       1.18465187       0.00000000
Si      -2.03045239      -1.38543911      -0.33259221       0.00000000
Si      -1.90747592      -0.69934599      -2.65041344       0.00000000
Si       2.24552763       2.42628147      -0.83996855       0.00000000
Si      -2.02381421       0.02571865       2.84161382       0.00000000
Si       2.90941029      -2.20911038      -0.71670156       0.00000000
Si       0.75287493      -2.63571290       2.71566184       0.00000000
Si       0.71882883       2.69995347       2.73895022       0.00000000
