10
Lattice="16.28999089631971 0.0 0.0 0.0 16.28999089631971 0.0 0.0 0.0 34.64500226677339" Properties=species:S:1:pos:R:3:initial_magmoms:R:1 pbc="T T T"
Si       0.46040427      -0.14450859       2.29300332       0.00000000
Si      -0.58479471       1.86765569      -1.34017337       0.00000000
Si      -2.27369304      -1.23704631       0.32708365       0.00000000
Si       2.34965331      -0.10176363      -1.21077422       0.00000000
Si       2.26774719      -1.97671005       2.07405886       0.00000000
Si      -1.55898558       0.93761886      -3.36139858       0.00000000
Si      -1.36438524      -1.09222821       3.48365536       0.00000000
Si       1.25330373       3.37586534      -1.61819967       0.00000000
Si      -2.38607775       3.13765667      -0.30130775       0.00000000
Si      -2.71974582      -2.39765994      -1.64248583       0.00000000
