10
Lattice="16.28999089631971 0.0 0.0 0.0 16.28999089631971 0.0 0.0 0.0 34.64500226677339" Properties=species:S:1:pos:R:3:initial_magmoms:R:1 pbc="T T T"
Si      -0.93687048      -1.75469105      -1.18929396       0.00000000
Si       1.08636381      -1.51115555       1.43364910       0.00000000
Si      -1.61311725       1.19307308       1.39751435       0.00000000
Si       1.87119972       0.79957184      -1.39008442       0.00000000
Si       2.55865401       2.63954363      -0.00546006       0.00000000
Si       2.43199926      -0.16131498       2.78351269       0.00000000
Si       2.53192212      -2.72031338       0.04156710       0.00000000
Si      -0.28010655       2.55260390       2.77876632       0.00000000
Si      -2.76165999      -2.70241067       0.00135808       0.00000000
Si      -2.83375953       2.66669906      -0.03055691       0.00000000
