10
Lattice="16.28999089631971 0.0 0.0 0.0 16.28999089631971 0.0 0.0 0.0 34.64500226677339" Properties=species:S:1:pos:R:3:initial_magmoms:R:1 pbc="T T T"
Si       1.36076886      -1.35438807      -1.36196509       0.00000000
Si      -1.36547667      -1.33829680       1.37391762       0.00000000
Si      -1.35532800       1.36163223      -1.36141077       0.00000000
Si       1.37264427       1.36324494       1.36847835       0.00000000
Si       0.02526579      -2.66682808       2.73733780       0.00000000
Si       2.71444638      -2.71423447      -0.00263302       0.00000000
Si       2.71450337       2.71660185      -0.00270231       0.00000000
Si       0.00055386      -2.71336711      -2.71911452       0.00000000
Si      -2.71472850       0.00166158      -2.71883736       0.00000000
Si      -2.72005533      -2.71383974      -0.00277160       0.00000000
