10
Lattice="16.28999089631971 0.0 0.0 0.0 16.28999089631971 0.0 0.0 0.0 34.64500226677339" Properties=species:S:1:pos:R:3:initial_magmoms:R:1 pbc="T T T"
Si       1.55811474       0.97865433      -1.47806056       0.00000000
Si       0.72024606      -1.72089189       1.47324490       0.00000000
Si      -1.50799788      -1.14484491      -1.52209438       0.00000000
Si      -0.40293315       1.89672615       1.53155247       0.00000000
Si      -3.15977130       0.55768815      -1.43555112       0.00000000
Si      -2.34204588       1.26405513       2.61424404       0.00000000
Si       2.49590723       2.77068465      -0.18309894       0.00000000
Si       0.74699424      -0.73111149       3.66495826       0.00000000
Si       0.29763459       2.05024311      -3.24526847       0.00000000
Si       2.75517724      -2.68858305       0.64041322       0.00000000
