10
Lattice="16.28999089631971 0.0 0.0 0.0 16.28999089631971 0.0 0.0 0.0 34.64500226677339" Properties=species:S:1:pos:R:3:initial_magmoms:R:1 pbc="T T T"
Si      -1.35634612      -1.35627282       1.35846594       0.00000000
Si      -1.35775032       1.35798327      -1.35780769       0.00000000
Si       1.35804843      -1.35788553      -1.35777304       0.00000000
Si       1.35995436       1.35832536       1.35683763       0.00000000
Si       2.71285515      -0.00094482       2.71440280       0.00000000
Si      -2.71351919       0.00107514      -2.71436815       0.00000000
Si      -0.00061902       2.70989037       2.71911452       0.00000000
Si       0.00066789      -2.71388142      -2.71523428       0.00000000
Si      -2.71477784      -2.71484253      -0.00055432       0.00000000
Si       2.71534752       2.71461447      -0.00027716       0.00000000
