10
Lattice="16.28999089631971 0.0 0.0 0.0 16.28999089631971 0.0 0.0 0.0 34.64500226677339" Properties=species:S:1:pos:R:3:initial_magmoms:R:1 pbc="T T T"
Si       0.98395756       1.25345034      -1.76197651       0.00000000
Si      -2.10241998      -0.68989779      -0.88389844       0.00000000
Si       1.06696961      -2.10077469       0.40340663       0.00000000
Si      -1.33188669       0.02565675       2.93502230       0.00000000
Si       0.45677160      -1.75488912       2.95601718       0.00000000
Si       0.33630705       3.53629836      -1.34692915       0.00000000
Si       3.41474957       1.15196364      -1.29943083       0.00000000
Si       1.47700194      -3.18930507      -1.89878970       0.00000000
Si       0.72151668       0.28233828      -3.99689221       0.00000000
Si      -2.04964038      -1.65760524      -3.11243945       0.00000000
