10
Lattice="16.28999089631971 0.0 0.0 0.0 16.28999089631971 0.0 0.0 0.0 34.64500226677339" Properties=species:S:1:pos:R:3:initial_magmoms:R:1 pbc="T T T"
Si      -1.35679410      -1.35565380      -1.35583292       0.00000000
Si       1.35666343      -1.35725022       1.35687227       0.00000000
Si      -1.35769005       1.35760860       1.35739195       0.00000000
Si       1.36035922       1.35847197      -1.35642189       0.00000000
Si       2.71318162      -0.00057015      -2.71422957       0.00000000
Si      -2.71251306       0.00322542       2.71547680       0.00000000
Si       0.00073305      -2.71249677       2.71613505       0.00000000
Si       2.71428445      -2.71450044       0.00003465       0.00000000
Si       0.00016290       2.71559187       2.71398706       0.00000000
Si       2.71542475       2.71446786       0.00020787       0.00000000
