10
Lattice="16.28999089631971 0.0 0.0 0.0 16.28999089631971 0.0 0.0 0.0 34.64500226677339" Properties=species:S:1:pos:R:3:initial_magmoms:R:1 pbc="T T T"
Si      -1.35482301      -1.35438318       1.35808485       0.00000000
Si       1.35785295       1.35798327       1.35659511       0.00000000
Si       1.35769005      -1.35760860      -1.35739195       0.00000000
Si      -1.35822762       1.35826020      -1.35704550       0.00000000
Si       0.00089595      -2.71326240      -2.71322487       0.00000000
Si      -2.71313208       0.00195480      -2.71367525       0.00000000
Si       2.71367196       0.00112401       2.71409099       0.00000000
Si       2.71435348      -2.71485882      -0.00051968       0.00000000
Si       2.71479066       2.71505430       0.00006929       0.00000000
Si      -2.71516833      -2.71489140       0.00027716       0.00000000
