10
Lattice="16.28999089631971 0.0 0.0 0.0 16.28999089631971 0.0 0.0 0.0 34.64500226677339" Properties=species:S:1:pos:R:3:initial_magmoms:R:1 pbc="T T T"
Si       1.34599383       1.33415100      -1.38313320       0.00000000
Si       1.37438730      -1.36534635       1.38694415       0.00000000
Si      -1.36603053      -1.38266262      -1.38046553       0.00000000
Si      -1.16688528       1.44565605       1.60177793       0.00000000
Si      -1.99493856      -0.41148540       2.99319129       0.00000000
Si      -0.19311795      -2.33512263       2.82401965       0.00000000
Si       2.68977222       2.69858511      -0.00481566       0.00000000
Si      -2.71288610       2.69180847       0.01153679       0.00000000
Si      -0.00690696       2.69342118      -2.74069837       0.00000000
Si       2.70609480      -0.01998783      -2.74076766       0.00000000
