10
Lattice="16.28999089631971 0.0 0.0 0.0 16.28999089631971 0.0 0.0 0.0 34.64500226677339" Properties=species:S:1:pos:R:3:initial_magmoms:R:1 pbc="T T T"
Si      -1.58843790      -0.70711632      -1.59096868       0.00000000
Si       1.64214603       1.25270100      -1.40021319       0.00000000
Si      -1.68285474       0.22046886       1.94808957       0.00000000
Si       0.02554272       1.20695868       3.25598213       0.00000000
Si       0.07714944       2.04472080      -3.02340175       0.00000000
Si      -0.75070836      -2.78788689      -2.34844744       0.00000000
Si       1.10363121       3.01422015       1.93693387       0.00000000
Si      -2.19693456       1.27783647      -2.83548715       0.00000000
Si      -3.25172835      -2.08614627      -0.25990695       0.00000000
Si       2.51906931       3.16578231      -0.28207977       0.00000000
