10
Lattice="16.28999089631971 0.0 0.0 0.0 16.28999089631971 0.0 0.0 0.0 34.64500226677339" Properties=species:S:1:pos:R:3:initial_magmoms:R:1 pbc="T T T"
Si      -1.35490446      -1.35630540      -1.35662976       0.00000000
Si      -1.35710361       1.35705474       1.35721872       0.00000000
Si       1.35822762      -1.35826020       1.35704550       0.00000000
Si       1.35881406       1.36026387      -1.35725337       0.00000000
Si      -2.71182888      -0.00032580       2.71461067       0.00000000
Si       0.00340461      -2.71264338       2.71513034       0.00000000
Si      -2.71415835       2.71379997      -0.00024252       0.00000000
Si      -0.00141723       2.71265967      -2.71575396       0.00000000
Si       2.71608057      -0.00027693       2.71364061       0.00000000
Si      -2.71446786      -2.71554300      -0.00048503       0.00000000
