10
Lattice="16.28999089631971 0.0 0.0 0.0 16.28999089631971 0.0 0.0 0.0 34.64500226677339" Properties=species:S:1:pos:R:3:initial_magmoms:R:1 pbc="T T T"
Si      -1.34185910      -1.35335691       1.37118067       0.00000000
Si      -1.35534722       1.35969372      -1.35749588       0.00000000
Si       1.35960838      -1.35656604      -1.35732266       0.00000000
Si       1.36992973       1.35641943       1.39328419       0.00000000
Si       0.22327826      -2.56016898       2.72174754       0.00000000
Si      -2.55062597       0.16109181       2.73997083       0.00000000
Si       2.71533549       2.70959715       0.00332592       0.00000000
Si      -2.71378661       0.00011403      -2.71603112       0.00000000
Si      -2.71450337      -2.71660185       0.00270231       0.00000000
Si       0.00117667      -2.71513575      -2.71634292       0.00000000
