10
Lattice="16.28999089631971 0.0 0.0 0.0 16.28999089631971 0.0 0.0 0.0 34.64500226677339" Properties=species:S:1:pos:R:3:initial_magmoms:R:1 pbc="T T T"
Si      -2.19903597       0.83096919       0.04940380       0.00000000
Si       1.62538362      -0.11956860      -1.84360018       0.00000000
Si       0.25780554      -1.79929566       1.72490634       0.00000000
Si       1.80929772       1.78491159       0.33224576       0.00000000
Si      -0.27881964       2.42543439       1.51343312       0.00000000
Si      -0.77854797       2.44198503      -1.56813761       0.00000000
Si       3.03560892      -0.12362481       1.04444347       0.00000000
Si       2.69923671      -1.82501757      -0.62617412       0.00000000
Si      -0.94395663      -2.85228126      -1.75781911       0.00000000
Si       1.83788667      -0.44745372       3.08150145       0.00000000
