10
Lattice="16.28999089631971 0.0 0.0 0.0 16.28999089631971 0.0 0.0 0.0 34.64500226677339" Properties=species:S:1:pos:R:3:initial_magmoms:R:1 pbc="T T T"
Si       1.31799132      -1.92608073      -0.42675738       0.00000000
Si       1.49527539       1.85560923       0.01326904       0.00000000
Si      -1.12370049       0.07136649      -2.11577147       0.00000000
Si      -1.15439085      -0.67285845       1.99745872       0.00000000
Si      -1.94520519      -2.10297384      -1.81037561       0.00000000
Si       2.29651533      -1.74057021       1.88479311       0.00000000
Si       0.91528623       0.19896606      -3.31667186       0.00000000
Si      -0.09958077       3.59162639      -0.56454063       0.00000000
Si      -3.40179183      -0.06600708       1.49337366       0.00000000
Si      -0.22851612      -3.62817396      -1.19975710       0.00000000
