10
Lattice="16.28999089631971 0.0 0.0 0.0 16.28999089631971 0.0 0.0 0.0 34.64500226677339" Properties=species:S:1:pos:R:3:initial_magmoms:R:1 pbc="T T T"
Si       0.68732397       2.24147698      -0.34693525       0.00000000
Si      -1.99946718       0.00338832       1.28851764       0.00000000
Si      -0.47596122      -1.27316124      -2.01065848       0.00000000
Si       1.83086309      -1.17323838       1.10860605       0.00000000
Si       1.25994344      -0.35451927      -3.27499389       0.00000000
Si      -0.37379034      -3.45377322      -1.07278309       0.00000000
Si       1.35897274      -3.39688854       0.44844516       0.00000000
Si       1.06548003       3.00020165       1.90900998       0.00000000
Si      -3.57060510       1.23084864      -0.01642174       0.00000000
Si      -1.57996710       0.62771886       3.53053557       0.00000000
