10
Lattice="16.28999089631971 0.0 0.0 0.0 16.28999089631971 0.0 0.0 0.0 34.64500226677339" Properties=species:S:1:pos:R:3:initial_magmoms:R:1 pbc="T T T"
Si      -0.87692328      -1.91308131      -1.11813343       0.00000000
Si      -1.33353198       1.72338426      -1.06581945       0.00000000
Si       2.37316371       0.10976202      -1.05081815       0.00000000
Si      -1.41543810      -0.15156216       2.21901364       0.00000000
Si       2.85453484       1.90118961       0.58061592       0.00000000
Si       1.24520760       2.39021282       2.31872201       0.00000000
Si       2.59512310      -2.48837895      -0.41944728       0.00000000
Si       0.24601158       0.71501697       3.66881914       0.00000000
Si      -2.44191987      -1.12106151      -2.74132198       0.00000000
Si      -1.75303206       1.09905372      -3.30783738       0.00000000
