10
Lattice="16.28999089631971 0.0 0.0 0.0 16.28999089631971 0.0 0.0 0.0 34.64500226677339" Properties=species:S:1:pos:R:3:initial_magmoms:R:1 pbc="T T T"
Si      -1.55811474      -0.97865433       1.47806056       0.00000000
Si       1.39889235      -1.36436895      -1.37111138       0.00000000
Si       0.93779249       1.79203032       1.29496162       0.00000000
Si      -1.26048015       1.07158878      -1.76720791       0.00000000
Si      -0.42910371       3.24218241      -1.53848148       0.00000000
Si       2.90523842       2.25611613       0.12846374       0.00000000
Si      -1.96104789       0.91807182       3.00961303       0.00000000
Si      -3.06611262      -2.12349924      -0.04403382       0.00000000
Si      -0.44985717       3.68044857       0.73984444       0.00000000
Si       1.50740981      -0.40982382      -3.51903343       0.00000000
