10
Lattice="16.28999089631971 0.0 0.0 0.0 16.28999089631971 0.0 0.0 0.0 34.64500226677339" Properties=species:S:1:pos:R:3:initial_magmoms:R:1 pbc="T T T"
Si       0.45069543       0.98712513      -2.11448961       0.00000000
Si      -0.56677797      -2.29685742      -0.39439893       0.00000000
Si      -2.02358778       0.79496829       1.22525583       0.00000000
Si       2.06940015       0.21540267       1.43953529       0.00000000
Si      -3.64522049       0.08747730      -0.44189725       0.00000000
Si       2.94112692       2.31109488       0.56644610       0.00000000
Si      -1.18239336       0.07288146      -3.60997661       0.00000000
Si      -2.99756998      -2.19537072      -0.85694461       0.00000000
Si       1.13933889      -3.22367697      -1.83829949       0.00000000
Si       2.51579502       0.16451271      -2.95480460       0.00000000
