10
Lattice="16.28999089631971 0.0 0.0 0.0 16.28999089631971 0.0 0.0 0.0 34.64500226677339" Properties=species:S:1:pos:R:3:initial_magmoms:R:1 pbc="T T T"
Si       1.35711501       1.35577223      -1.35753053       0.00000000
Si      -1.35907568       1.35477037       1.35884704       0.00000000
Si       1.35279816      -1.35918873       1.36154935       0.00000000
Si      -1.35799834      -1.35953082      -1.35739195       0.00000000
Si      -2.71275319       2.71461677      -0.00048503       0.00000000
Si      -0.00019385       2.71313764      -2.71436815       0.00000000
Si       2.71493538      -0.00232947      -2.71464531       0.00000000
Si      -2.71558765      -0.00167787      -2.71416028       0.00000000
Si      -2.71493605      -2.71660185      -0.00086613       0.00000000
Si       2.71715082       2.71449948      -0.00090077       0.00000000
