10
Lattice="16.290000149 0.0 0.0 0.0 16.290000149 0.0 0.0 0.0 29.1751946751" Properties=species:S:1:pos:R:3:initial_magmoms:R:1 pbc="T T T"
Si       1.36852291       1.34889346       1.33794525       0.00000000
Si       1.44275644      -1.33132958      -1.28309589       0.00000000
Si      -1.34975683      -1.38789824       1.33526113       0.00000000
Si      -1.37738467       1.33988509      -1.35877634       0.00000000
Si       0.11793960      -2.66800017      -2.62007836       0.00000000
Si       0.03334563       2.74437633      -2.61641979       0.00000000
Si       0.00317655       2.69606018       2.68823161       0.00000000
Si       2.69363297      -0.03477915       2.69785943       0.00000000
Si      -2.71239905      -0.02534724       2.68090864       0.00000000
Si      -2.79671610      -0.08928549      -2.59455298       0.00000000
