10
Lattice="16.290000149 0.0 0.0 0.0 16.290000149 0.0 0.0 0.0 29.1751946751" Properties=species:S:1:pos:R:3:initial_magmoms:R:1 pbc="T T T"
Si      -1.35545833      -1.31461930       1.39963328       0.00000000
Si       1.34382727       1.36923967       1.36360192       0.00000000
Si      -1.37389861       1.35109261      -1.36199437       0.00000000
Si       1.42789996      -1.37565793      -1.29261867       0.00000000
Si      -2.67589316      -2.65557953       0.00527196       0.00000000
Si      -2.54752796      -0.11704365      -2.81206864       0.00000000
Si       2.68705181      -0.00739566      -2.71797864       0.00000000
Si       2.71140536       2.71945262       0.01359564       0.00000000
Si      -0.00283446      -2.68201820       2.75581303       0.00000000
Si       2.80293888      -2.64029951       0.12430675       0.00000000
