10
Lattice="16.290000149 0.0 0.0 0.0 16.290000149 0.0 0.0 0.0 29.1751946751" Properties=species:S:1:pos:R:3:initial_magmoms:R:1 pbc="T T T"
Si       1.14124483       0.13862790      -2.06128585       0.00000000
Si      -0.91240291      -1.83795185       1.16925428       0.00000000
Si       1.56643012       0.77424742       1.59089419       0.00000000
Si      -1.93217321       1.49074678      -0.31392509       0.00000000
Si      -1.94411378      -0.34987662       2.64035512       0.00000000
H       -2.83222830       0.49655178       1.75030745       0.00000000
H        1.87636367      -2.84024298      -0.10281339       0.00000000
Si      -0.04587264       0.95104279       3.27115200       0.00000000
Si       2.39878397       2.70626750       0.57472216       0.00000000
Si       2.67771764       1.97469011      -1.63381090       0.00000000
