10
Lattice="16.290000149 0.0 0.0 0.0 16.290000149 0.0 0.0 0.0 29.1751946751" Properties=species:S:1:pos:R:3:initial_magmoms:R:1 pbc="T T T"
Si      -0.93203725       0.81804145       1.99322013       0.00000000
Si       1.36452698       1.37815682      -1.33473598       0.00000000
Si      -1.86859822      -0.89783965      -1.12365345       0.00000000
Si       1.84128641      -1.17210786       0.93337283       0.00000000
H        2.64971025       1.42660328      -0.52363639       0.00000000
H       -2.91637103       0.21454256      -1.10270566       0.00000000
Si       0.52369744      -2.60137619       2.27502333       0.00000000
Si       1.96670312      -0.12979058      -3.09621753       0.00000000
Si      -0.64608780      -1.00826337       3.56188282       0.00000000
Si       0.40112171       2.79577779       2.48158371       0.00000000
