10
Lattice="16.290000149 0.0 0.0 0.0 16.290000149 0.0 0.0 0.0 29.1751946751" Properties=species:S:1:pos:R:3:initial_magmoms:R:1 pbc="T T T"
Si       1.35509995      -1.36609570       1.33747845       0.00000000
Si      -1.35573526      -1.36762696      -1.33774103       0.00000000
Si       1.37490859       1.33659451      -1.36186891       0.00000000
Si      -1.37785708       1.34574949       1.35746346       0.00000000
Si       2.64732050       0.07104069       2.65155839       0.00000000
Si       0.02857266      -2.72264546      -2.67186433       0.00000000
Si      -2.68404468      -0.00674406      -2.71171764       0.00000000
Si      -2.70733286       2.70515000      -0.00761473       0.00000000
Si       0.03178179       2.72003906      -2.70506570       0.00000000
Si      -2.70323430      -2.72199061       0.03751930       0.00000000
