10
Lattice="16.290000149 0.0 0.0 0.0 16.290000149 0.0 0.0 0.0 29.1751946751" Properties=species:S:1:pos:R:3:initial_magmoms:R:1 pbc="T T T"
Si       1.74731429       0.32319034      -1.49184440       0.00000000
Si      -1.91746334       1.06123812      -0.77883182       0.00000000
Si       0.63949654       0.67730237       2.14598144       0.00000000
Si      -0.04465089      -2.14596643       0.98008231       0.00000000
Si       1.86597065      -1.98210532      -1.72667555       0.00000000
Si      -0.60229018      -1.10928711       2.98896952       0.00000000
H        1.32760243       2.99043352       0.00749803       0.00000000
Si      -0.75530215       2.50150545      -2.28225878       0.00000000
Si      -2.88948765       1.46674836       1.37327641       0.00000000
Si       2.15106194      -2.86859083       0.51479631       0.00000000
