10
Lattice="16.290000149 0.0 0.0 0.0 16.290000149 0.0 0.0 0.0 29.1751946751" Properties=species:S:1:pos:R:3:initial_magmoms:R:1 pbc="T T T"
Si      -0.92838340       1.04464513      -1.83351511       0.00000000
Si       1.06992721       1.75993904       1.06457368       0.00000000
Si       1.33320619      -1.54671922      -1.15746750       0.00000000
Si      -1.93732085      -1.02894157       0.90416846       0.00000000
H        0.51280920      -1.28194156       2.39665472       0.00000000
Si       0.69168970      -2.66957102       1.78654305       0.00000000
Si      -1.69733657      -1.00240516      -2.71273878       0.00000000
Si      -0.47763909      -2.87394536      -1.76118980       0.00000000
Si      -2.22625658       2.54397674      -0.51132446       0.00000000
Si      -1.20818044      -3.21859941       0.50085057       0.00000000
