10
Lattice="16.290000149 0.0 0.0 0.0 16.290000149 0.0 0.0 0.0 29.1751946751" Properties=species:S:1:pos:R:3:initial_magmoms:R:1 pbc="T T T"
Si       1.37489230       1.34249149      -1.34232153       0.00000000
Si       1.36282141      -1.39411450       1.30445213       0.00000000
Si      -1.35441577      -1.35343837      -1.36076025       0.00000000
Si      -1.35242839       1.37002159       1.35069481       0.00000000
Si       0.00578295       2.69063561      -2.68376781       0.00000000
Si       2.78269041      -0.08451252       2.61931980       0.00000000
Si      -2.74170477       0.01044189       2.66369527       0.00000000
Si       0.01350441      -2.75258649       2.65654735       0.00000000
Si       0.01479132      -2.73248462      -2.68341771       0.00000000
Si       0.02456532       2.73572634       2.68741471       0.00000000
