10
Lattice="16.290000149 0.0 0.0 0.0 16.290000149 0.0 0.0 0.0 29.1751946751" Properties=species:S:1:pos:R:3:initial_magmoms:R:1 pbc="T T T"
Si      -0.22822290       2.13366422       0.91044113       0.00000000
Si      -1.81587890      -0.75888595      -1.38173722       0.00000000
Si       0.34751457      -1.95071123       1.36633272       0.00000000
Si       2.12638259       0.58533229      -1.00458948       0.00000000
H        2.22192344      -0.23776884       1.56755403       0.00000000
H       -1.36487395       2.19046745       1.91059597       0.00000000
H        2.87151978      -0.66261205       1.60726147       0.00000000
H       -1.04653477      -1.11788497       2.99457116       0.00000000
Si       1.95983363      -2.73676890      -0.15591224       0.00000000
H        1.06578955      -1.86789287       2.69065315       0.00000000
