10
Lattice="16.290000149 0.0 0.0 0.0 16.290000149 0.0 0.0 0.0 29.1751946751" Properties=species:S:1:pos:R:3:initial_magmoms:R:1 pbc="T T T"
Si       1.39211083       1.43571916      -1.17716075       0.00000000
Si       1.70170229      -1.59690871       0.01455842       0.00000000
Si      -0.95402386       1.27171144       1.75523806       0.00000000
Si      -1.59448150      -0.81287101      -1.56133972       0.00000000
Si      -2.07260930       1.21630915      -2.62261660       0.00000000
Si      -0.17226675       2.71647155      -2.30419853       0.00000000
Si       0.63177508      -3.35684775      -1.05001526       0.00000000
Si      -2.40388274       2.69052158       0.53883667       0.00000000
Si      -0.29660832      -2.31220262      -2.88353037       0.00000000
Si       2.35641368      -2.01961793       2.14620318       0.00000000
