10
Lattice="16.290000149 0.0 0.0 0.0 16.290000149 0.0 0.0 0.0 29.1751946751" Properties=species:S:1:pos:R:3:initial_magmoms:R:1 pbc="T T T"
Si      -1.30899925       0.46164231      -0.60754425       0.00000000
H        0.57490669      -0.12066003      -2.33868361       0.00000000
Si       1.76552651      -0.62776774      -1.54354285       0.00000000
Si       1.08411580      -2.48803688      -0.11900562       0.00000000
Si      -2.56730402       0.70566652       1.33202269       0.00000000
Si       0.45763497      -2.15283755       2.21267594       0.00000000
Si      -2.27654381      -1.53741763      -1.48457978       0.00000000
Si      -1.33064866      -0.61356286       2.84189736       0.00000000
Si      -1.03109185       2.49078989      -1.80501094       0.00000000
Si       3.04686534       1.06544746      -0.37752702       0.00000000
