10
Lattice="16.290000149 0.0 0.0 0.0 16.290000149 0.0 0.0 0.0 29.1751946751" Properties=species:S:1:pos:R:3:initial_magmoms:R:1 pbc="T T T"
Si       1.35886294       1.36534636       1.33097238       0.00000000
Si       1.36534636      -1.34716672      -1.35028636       0.00000000
Si      -1.32916627       1.36673101      -1.37601888       0.00000000
Si      -1.35594703      -1.37767789       1.35597552       0.00000000
Si       2.69498504      -0.01019754       2.68411791       0.00000000
Si      -0.00317655      -2.69606018      -2.68823161       0.00000000
Si      -2.70774011       0.00276930      -2.68076276       0.00000000
Si      -2.71456562       2.68118741      -0.01785522       0.00000000
Si       0.01153332       2.71309952       2.69742180       0.00000000
Si       2.69715161       2.72241740      -0.04986041       0.00000000
