10
Lattice="16.290000149 0.0 0.0 0.0 16.290000149 0.0 0.0 0.0 29.1751946751" Properties=species:S:1:pos:R:3:initial_magmoms:R:1 pbc="T T T"
Si      -1.35886294      -1.36534636      -1.33097238       0.00000000
Si      -1.34732962       1.34775316       1.36644942       0.00000000
Si       1.33612210      -1.37554390       1.35314553       0.00000000
Si       1.33828867       1.35707104      -1.38083279       0.00000000
Si      -2.70278795       2.67745700      -0.02173552       0.00000000
Si       2.67840182      -0.01497051       2.70763312       0.00000000
Si       0.00648342      -2.71251308      -2.68125874       0.00000000
Si      -2.68802921       0.00138465      -2.70699126       0.00000000
Si       2.69012248       2.70976007      -0.01943068       0.00000000
Si      -2.70184313      -0.02722059       2.70842085       0.00000000
