10
Lattice="16.290000149 0.0 0.0 0.0 16.290000149 0.0 0.0 0.0 29.1751946751" Properties=species:S:1:pos:R:3:initial_magmoms:R:1 pbc="T T T"
Si      -1.35521398       1.35708733      -1.30451048       0.00000000
Si       1.38714238       1.35317773       1.29330720       0.00000000
Si       1.36072000      -1.34845363      -1.33403578       0.00000000
Si      -1.34658028      -1.31621572       1.38439216       0.00000000
H       -0.43684893      -2.20876112       2.19662958       0.00000000
Si       2.60897384      -0.18269235       2.53377813       0.00000000
Si      -2.66445758      -0.07374483      -2.62813071       0.00000000
Si      -2.55606392       2.75778300       0.17190025       0.00000000
Si       2.60161076      -2.73888660       0.03740260       0.00000000
Si       0.01754433       2.60988608      -2.73724594       0.00000000
