10
Lattice="16.290000149 0.0 0.0 0.0 16.290000149 0.0 0.0 0.0 29.1751946751" Properties=species:S:1:pos:R:3:initial_magmoms:R:1 pbc="T T T"
Si      -1.35986315      -1.35022924       1.35396243       0.00000000
Si      -1.38890170       1.34934958      -1.33006795       0.00000000
Si       1.31834971      -1.36265851      -1.39063565       0.00000000
Si       1.37023336       1.36076887       1.35200770       0.00000000
Si      -0.01322748       2.69768918      -2.68047101       0.00000000
Si       0.01084914      -2.69216687       2.71128002       0.00000000
Si       2.68534136      -2.71982729      -0.06249327       0.00000000
Si       2.68697036      -0.01860318      -2.73319059       0.00000000
Si      -2.69928732       0.01128897       2.72691792       0.00000000
Si      -2.70322096      -0.01681128      -2.72429215       0.00000000
