10
Lattice="16.290000149 0.0 0.0 0.0 16.290000149 0.0 0.0 0.0 29.1751946751" Properties=species:S:1:pos:R:3:initial_magmoms:R:1 pbc="T T T"
Si      -0.53185221      -0.25521543       1.38777649       0.00000000
H       -0.69507802      -0.93452473      -1.62304526       0.00000000
H       -1.58164498       0.89598259      -1.17374726       0.00000000
H        1.25529112       1.75764215       0.41507549       0.00000000
Si       0.44157303      -0.99132796      -2.62320010       0.00000000
Si       2.17649063       1.82741222      -0.79201901       0.00000000
Si       2.50541831      -0.29657574      -1.72162824       0.00000000
Si       1.15548229      -1.18996822       2.69575881       0.00000000
Si      -2.32914422      -1.84943630       1.27291374       0.00000000
Si      -2.93083167       0.28719270      -1.43854132       0.00000000
