10
Lattice="16.290000149 0.0 0.0 0.0 16.290000149 0.0 0.0 0.0 29.1751946751" Properties=species:S:1:pos:R:3:initial_magmoms:R:1 pbc="T T T"
Si      -1.31944114      -1.32743953       1.36645963       0.00000000
Si       1.26363323      -1.43138602      -1.32166987       0.00000000
Si      -1.13818231       1.50140044      -1.38728488       0.00000000
Si       1.50811681       1.38238570       1.16854970       0.00000000
Si       1.94781161       0.33023088      -2.82708074       0.00000000
H       -2.32968179       0.96166387      -2.42945201       0.00000000
Si       0.53008801       2.28118646      -2.84298122       0.00000000
Si       0.10814931       2.73194706       2.53776492       0.00000000
Si       0.13080205      -2.71298549       2.59255010       0.00000000
Si      -2.57755043       0.07245792       2.73194335       0.00000000
