10
Lattice="16.290000149 0.0 0.0 0.0 16.290000149 0.0 0.0 0.0 29.1751946751" Properties=species:S:1:pos:R:3:initial_magmoms:R:1 pbc="T T T"
Si       1.42522840       1.38908089       1.18063260       0.00000000
Si      -1.32108643       1.44081793      -1.27446003       0.00000000
Si       1.43412274      -1.32221044      -1.28160795       0.00000000
Si      -1.38349342      -1.33594291       1.34027927       0.00000000
Si       0.05623308      -2.66230730      -2.61319301       0.00000000
Si      -2.66934458       0.07881102      -2.62270413       0.00000000
Si       0.01006722      -2.61858494       2.70168138       0.00000000
Si      -2.56608227       0.11349243       2.75410920       0.00000000
Si       2.71956665       0.09454716       2.60697870       0.00000000
Si       0.06818994       2.80039764      -2.58746049       0.00000000
