10
Lattice="16.290000149 0.0 0.0 0.0 16.290000149 0.0 0.0 0.0 29.1751946751" Properties=species:S:1:pos:R:3:initial_magmoms:R:1 pbc="T T T"
Si      -1.36438525      -1.34753813       1.35016966       0.00000000
Si      -1.36270738       1.36573732      -1.33564041       0.00000000
Si       1.35962857       1.34372953       1.36329850       0.00000000
Si       1.36264222      -1.36255100      -1.34564750       0.00000000
Si       0.00995319      -2.69404022       2.68686038       0.00000000
Si       2.71239905       0.02534724      -2.68090864       0.00000000
Si       0.00783549       2.72417672      -2.67343979       0.00000000
Si      -2.74833480       0.01560582      -2.66051518       0.00000000
Si      -0.00131949       2.69511536       2.71588970       0.00000000
Si      -2.71433756      -2.71730234      -0.00119618       0.00000000
