10
Lattice="16.290000149 0.0 0.0 0.0 16.290000149 0.0 0.0 0.0 29.1751946751" Properties=species:S:1:pos:R:3:initial_magmoms:R:1 pbc="T T T"
Si       1.19061982      -0.50710770       0.79514076       0.00000000
H       -0.79843807       0.75152287      -1.65379591       0.00000000
H        0.64400887       1.66057004      -1.09902958       0.00000000
H       -0.57490669       0.12066003       2.33868361       0.00000000
Si      -1.88390594       0.58230235       1.73113935       0.00000000
Si      -1.64133154      -0.18604809      -2.46089850       0.00000000
Si       2.52804512      -1.58291560      -0.82090245       0.00000000
Si      -1.60599853       2.61144992       0.53367266       0.00000000
Si       0.50920911      -2.36737685       2.21967799       0.00000000
Si      -2.85145050      -1.41675760       0.85410382       0.00000000
