10
Lattice="16.290000149 0.0 0.0 0.0 16.290000149 0.0 0.0 0.0 29.1751946751" Properties=species:S:1:pos:R:3:initial_magmoms:R:1 pbc="T T T"
Si      -1.32986544       1.40895469      -1.31113325       0.00000000
Si       1.33496682       1.37701000       1.34515153       0.00000000
Si       1.35033154      -1.32670648      -1.40676954       0.00000000
Si      -1.38503967      -1.33154461       1.36799570       0.00000000
Si      -2.72021695       0.06393825      -2.58636934       0.00000000
Si       2.64443848      -2.67954212       0.02532407       0.00000000
Si       2.67807733       0.01914075       2.70871260       0.00000000
Si       2.66599015       2.73471635      -0.03804445       0.00000000
Si      -0.05323442       2.73803952       2.66842166       0.00000000
Si      -2.75356258      -2.68043807       0.03005045       0.00000000
