10
Lattice="16.290000149 0.0 0.0 0.0 16.290000149 0.0 0.0 0.0 29.1751946751" Properties=species:S:1:pos:R:3:initial_magmoms:R:1 pbc="T T T"
Si       0.59828284       0.09739791       1.40157635       0.00000000
H        2.11232432      -0.75000790      -0.30391800       0.00000000
Si       1.39404934      -0.83282626      -1.62823844       0.00000000
Si      -0.47627073      -2.30096252      -1.78164161       0.00000000
Si      -1.11132010       0.54265248       2.93269057       0.00000000
H       -3.11064069      -0.62649712       0.77393039       0.00000000
Si       1.07641063      -1.93178225       2.46285323       0.00000000
Si       1.04653477       1.11788497      -2.99457116       0.00000000
H       -1.68624308      -2.67871133       1.21307542       0.00000000
Si       2.49862538       1.59756031       1.71999443       0.00000000
