10
Lattice="16.290000149 0.0 0.0 0.0 16.290000149 0.0 0.0 0.0 29.1751946751" Properties=species:S:1:pos:R:3:initial_magmoms:R:1 pbc="T T T"
Si      -1.35990550       1.35310606      -1.35264955       0.00000000
Si      -1.35979147      -1.36339156       1.34249658       0.00000000
Si       1.33175638       1.35482954       1.38328351       0.00000000
Si       1.35096229      -1.36055710      -1.36020593       0.00000000
Si       2.68348430       2.70622514       0.00994874       0.00000000
Si      -2.71259453       0.02161683       2.67985833       0.00000000
Si       0.02753010      -2.70607853       2.68931109       0.00000000
Si      -2.70661610      -0.03464883      -2.69208274       0.00000000
Si       2.66367566      -0.01202202       2.75498446       0.00000000
Si      -0.01014867       2.74100429      -2.68791069       0.00000000
