10
Lattice="16.290000149 0.0 0.0 0.0 16.290000149 0.0 0.0 0.0 29.1751946751" Properties=species:S:1:pos:R:3:initial_magmoms:R:1 pbc="T T T"
Si       2.26899340      -0.48702213       0.12355695       0.00000000
Si      -0.27893367       0.73157739       2.20853306       0.00000000
Si      -0.57477637       1.73733340      -1.51941496       0.00000000
Si      -1.53647281      -1.83606221      -0.42747495       0.00000000
H       -1.32670648       1.84395960       2.22948085       0.00000000
Si       2.53982279      -1.30807072      -2.02974747       0.00000000
Si      -1.11128752      -1.20044269       3.22470509       0.00000000
Si      -2.67771764      -1.97469011       1.63381090       0.00000000
Si      -1.76505410       0.58957159      -3.21259739       0.00000000
Si      -2.57140910       2.62221761      -0.54400068       0.00000000
