10
Lattice="16.290000149 0.0 0.0 0.0 16.290000149 0.0 0.0 0.0 29.1751946751" Properties=species:S:1:pos:R:3:initial_magmoms:R:1 pbc="T T T"
Si      -2.05442966       0.60891369      -0.89421972       0.00000000
Si       1.02716596      -1.61830400      -1.32207395       0.00000000
Si      -0.52136145      -1.25738276       1.93136871       0.00000000
Si       1.51712029       1.84877818       0.06748223       0.00000000
Si       2.32347530      -0.18386784      -2.60111448       0.00000000
Si      -3.29621637      -1.17767579      -0.05123164       0.00000000
Si       2.55205658      -2.60950164       0.18400795       0.00000000
Si       0.78003037       3.17364389      -1.72276607       0.00000000
Si      -2.13620546       0.27189151       3.00717484       0.00000000
Si       0.89472826       2.92113260       2.11575594       0.00000000
