10
Lattice="16.290000149 0.0 0.0 0.0 16.290000149 0.0 0.0 0.0 29.1751946751" Properties=species:S:1:pos:R:3:initial_magmoms:R:1 pbc="T T T"
Si      -1.34571691      -1.33315732      -1.38953575       0.00000000
Si      -1.34374582       1.30320001       1.42404125       0.00000000
Si       1.30298824       1.35299854      -1.43492068       0.00000000
Si       1.34829073      -1.38469888       1.36207314       0.00000000
Si       2.69333813       2.64020177       0.00046680       0.00000000
Si      -2.68983740       2.64810242       0.05861297       0.00000000
Si       2.66290515      -0.10624338      -2.72261166       0.00000000
Si      -2.68752422      -2.75087604      -0.02891262       0.00000000
Si       0.01368360       2.65131155       2.79165768       0.00000000
Si       2.71254566      -0.05492988       2.74133047       0.00000000
