10
Lattice="16.290000149 0.0 0.0 0.0 16.290000149 0.0 0.0 0.0 29.1751946751" Properties=species:S:1:pos:R:3:initial_magmoms:R:1 pbc="T T T"
Si       1.32947578      -1.35940051       1.36507818       0.00000000
Si      -1.34227972      -1.36057339      -1.35448759       0.00000000
Si      -1.32097240       1.33633387       1.40659449       0.00000000
Si       1.35053875       1.36568845      -1.36382365       0.00000000
Si       2.63871938       0.07143165       2.68869842       0.00000000
Si      -2.66054798       2.70241328       0.03133416       0.00000000
Si      -2.67840182       0.01497051      -2.70763312       0.00000000
Si      -2.69661404      -2.70865235       0.01855542       0.00000000
Si       2.70733286      -2.70515000       0.00761473       0.00000000
Si       0.02328818      -2.71189406      -2.70410292       0.00000000
