10
Lattice="16.290000149 0.0 0.0 0.0 16.290000149 0.0 0.0 0.0 29.1751946751" Properties=species:S:1:pos:R:3:initial_magmoms:R:1 pbc="T T T"
Si      -1.35632170      -1.34962651      -1.35448759       0.00000000
Si      -1.34395759       1.33094188       1.38669700       0.00000000
Si       1.34058556       1.35317773      -1.38558835       0.00000000
Si       1.34519563      -1.38077299       1.35466264       0.00000000
Si       0.06856461      -2.70985781      -2.62489226       0.00000000
Si      -2.70694190       2.67053375       0.02278583       0.00000000
Si       2.70484049       2.68294673      -0.00633102       0.00000000
Si      -2.69588099      -0.06038703       2.71375991       0.00000000
Si       2.69516261      -0.03530043      -2.71562712       0.00000000
Si       2.69702944      -0.02808396       2.71606475       0.00000000
