10
Lattice="16.290000149 0.0 0.0 0.0 16.290000149 0.0 0.0 0.0 29.1751946751" Properties=species:S:1:pos:R:3:initial_magmoms:R:1 pbc="T T T"
Si       1.34395759      -1.33094188      -1.38669700       0.00000000
Si      -1.36298431       1.33959187      -1.36391118       0.00000000
Si      -1.35192340      -1.39132891       1.32706291       0.00000000
Si       1.37062432       1.34786719       1.35580047       0.00000000
Si      -2.73028548      -0.04417848       2.64884510       0.00000000
Si       2.68915322      -2.71171487      -0.03203436       0.00000000
Si      -2.69799869      -0.06488307      -2.70252746       0.00000000
Si      -2.71821458       2.69242751       0.00207144       0.00000000
Si       0.02650383       2.71272485       2.70681621       0.00000000
Si       2.71836802       2.70138701      -0.00195474       0.00000000
