10
Lattice="16.290000149 0.0 0.0 0.0 16.290000149 0.0 0.0 0.0 29.1751946751" Properties=species:S:1:pos:R:3:initial_magmoms:R:1 pbc="T T T"
H       -0.64959634       0.42484320      -0.03970744       0.00000000
Si       1.98904160       0.63252442       1.08540477       0.00000000
H       -1.80573023      -1.20528082       1.08339168       0.00000000
Si       0.74898163      -0.54794674      -2.49421657       0.00000000
Si       0.20075796       2.17179911       1.71462619       0.00000000
Si      -2.52400520      -1.28809918      -0.24092876       0.00000000
Si      -0.91168615      -2.07415685      -1.76317372       0.00000000
Si       2.61552242       0.29732508      -1.24627679       0.00000000
Si       1.21919248      -1.24307362       2.36479540       0.00000000
Si      -0.74513719       1.24794433      -2.61185095       0.00000000
