10
Lattice="16.290000149 0.0 0.0 0.0 16.290000149 0.0 0.0 0.0 29.1751946751" Properties=species:S:1:pos:R:3:initial_magmoms:R:1 pbc="T T T"
Si       0.08324190      -0.69292774      -2.22961797       0.00000000
Si      -0.98994331      -1.78610403       1.15253981       0.00000000
Si       1.83822878       0.88285285       1.18549611       0.00000000
Si      -1.63299106       1.73498276      -0.08177107       0.00000000
H        2.53337195      -0.94592773      -0.73713172       0.00000000
Si      -2.30557259      -0.46309212       2.55301626       0.00000000
Si       0.55065088       2.33166917       2.51375228       0.00000000
Si      -2.07073595       1.97925131      -2.36429067       0.00000000
Si      -2.12094173      -0.31418523      -3.03336541       0.00000000
Si       2.02056275       0.33601383      -3.13378643       0.00000000
