10
Lattice="16.290000149 0.0 0.0 0.0 16.290000149 0.0 0.0 0.0 29.1751946751" Properties=species:S:1:pos:R:3:initial_magmoms:R:1 pbc="T T T"
Si       0.73708993      -1.32486571       1.79024830       0.00000000
Si      -1.75642040       0.97013467       1.26325675       0.00000000
Si       1.38844558       1.82087993      -0.75295342       0.00000000
Si       0.10788867      -1.73198540      -1.80530270       0.00000000
H       -2.14635413      -0.25159905      -1.30993707       0.00000000
Si       2.88122862       0.55511434      -2.03680787       0.00000000
Si       2.73372267      -2.20974992       0.81483401       0.00000000
Si      -0.78003037      -3.17364389       1.72276607       0.00000000
Si      -2.79000462       0.59017042      -2.38968185       0.00000000
Si       1.54344493      -3.35751173      -0.87834841       0.00000000
