10
Lattice="16.290000149 0.0 0.0 0.0 16.290000149 0.0 0.0 0.0 29.1751946751" Properties=species:S:1:pos:R:3:initial_magmoms:R:1 pbc="T T T"
Si      -0.65471140       0.42270921      -2.13164475       0.00000000
Si      -1.90697258      -0.79039081       1.12306411       0.00000000
Si       0.85812463       1.93627829       1.04070837       0.00000000
Si       1.70489513      -1.66868246      -0.12575880       0.00000000
H       -1.21182940      -2.61917138      -0.79956372       0.00000000
Si       2.17205975       0.67253266       2.51428327       0.00000000
Si      -0.65800198      -2.16112916       2.53615008       0.00000000
Si       3.43016904      -0.72736480       1.14879955       0.00000000
Si       0.83961919      -3.39696351       1.25619344       0.00000000
Si      -2.35641368       2.01961793      -2.14620318       0.00000000
