10
Lattice="16.290000149 0.0 0.0 0.0 16.290000149 0.0 0.0 0.0 29.1751946751" Properties=species:S:1:pos:R:3:initial_magmoms:R:1 pbc="T T T"
Si      -1.03171087       1.48807522       1.47110084       0.00000000
Si       0.91240291       1.83795185      -1.16925428       0.00000000
Si      -1.34082991      -1.45525087      -1.29304463       0.00000000
Si       1.49975515      -1.31079115       1.29797524       0.00000000
H       -1.91982539       2.33450363       0.58105318       0.00000000
H        2.78876658      -1.00229113      -1.27206766       0.00000000
Si       2.32490882      -2.29377863      -0.63844079       0.00000000
Si       0.44745372      -2.99452557      -1.92226605       0.00000000
Si       0.86653027       2.78899464       2.10189773       0.00000000
Si       2.47883303       2.61219926       0.42163991       0.00000000
