10
Lattice="16.290000149 0.0 0.0 0.0 16.290000149 0.0 0.0 0.0 29.1751946751" Properties=species:S:1:pos:R:3:initial_magmoms:R:1 pbc="T T T"
Si      -1.34022718      -1.34759026       1.37330559       0.00000000
Si       1.32484942      -1.37015191      -1.37278044       0.00000000
Si      -1.35878149       1.32625036      -1.39054813       0.00000000
Si       1.34346889       1.32662503       1.40671119       0.00000000
Si       2.70049106       2.67483431       0.01525863       0.00000000
Si       2.62870103      -2.75147877       0.00096278       0.00000000
Si      -2.73180045       2.68475492      -0.06894099       0.00000000
Si      -2.73215883       0.00547344       2.68753141       0.00000000
Si       2.67918374      -0.02207295      -2.74582345       0.00000000
Si      -0.00426798       2.70122411      -2.73251956       0.00000000
