10
Lattice="16.290000149 0.0 0.0 0.0 16.290000149 0.0 0.0 0.0 29.1751946751" Properties=species:S:1:pos:R:3:initial_magmoms:R:1 pbc="T T T"
Si      -1.37073835       1.36064833      -1.31314634       0.00000000
Si      -1.38753334      -1.35936793       1.30389780       0.00000000
Si       1.32400234      -1.35169534      -1.38453804       0.00000000
Si       1.35570268       1.37174670       1.33806195       0.00000000
Si      -0.00519651      -2.70506855       2.64003419       0.00000000
Si      -0.02441871       2.69065190      -2.65963700       0.00000000
Si       2.67410126       0.04303119      -2.69512279       0.00000000
Si      -2.70539435       0.01122381       2.69275377       0.00000000
Si       2.73833274       0.01249443       2.66019425       0.00000000
Si      -0.00428427       2.72908002       2.67746597       0.00000000
