10
Lattice="16.290000149 0.0 0.0 0.0 16.290000149 0.0 0.0 0.0 29.1751946751" Properties=species:S:1:pos:R:3:initial_magmoms:R:1 pbc="T T T"
Si      -1.31194774      -1.36018243      -1.34520112       0.00000000
Si       1.31675329      -1.39162213       1.34165050       0.00000000
Si      -1.41931513       1.33053463       1.30194306       0.00000000
Si       1.30939021       1.28923948      -1.47045899       0.00000000
Si      -0.04582377       2.65719224       2.66556249       0.00000000
Si       2.69532713      -0.02766042       2.64639438       0.00000000
Si       2.68121999       2.69579954      -0.15868388       0.00000000
Si       2.64393218      -2.75056653      -0.02459469       0.00000000
Si      -2.77081500      -0.04504185       2.64878675       0.00000000
Si      -2.77105935       2.64935675      -0.10590596       0.00000000
