10
Lattice="16.290000149 0.0 0.0 0.0 16.290000149 0.0 0.0 0.0 29.1751946751" Properties=species:S:1:pos:R:3:initial_magmoms:R:1 pbc="T T T"
Si       1.46998072      -1.29450913       1.26801231       0.00000000
Si      -1.39935988      -1.41821882      -1.25622553       0.00000000
Si      -1.23468427       1.42795372       1.41560962       0.00000000
Si       1.38315133       1.33596409      -1.38176640       0.00000000
Si       0.15780123      -2.62617120       2.63644564       0.00000000
Si      -2.58577688       2.73985259      -0.00942359       0.00000000
Si      -2.66040137      -0.02596300      -2.68671450       0.00000000
Si       0.03080439      -2.70025812      -2.66792568       0.00000000
Si       2.70432084       0.05984457       2.71399331       0.00000000
Si       2.76340305       2.69547863      -0.04813907       0.00000000
