10
Lattice="16.290000149 0.0 0.0 0.0 16.290000149 0.0 0.0 0.0 29.1751946751" Properties=species:S:1:pos:R:3:initial_magmoms:R:1 pbc="T T T"
Si       1.33165864       1.33123510      -1.39664574       0.00000000
Si      -1.19628874       1.47413098       1.42990547       0.00000000
Si       1.47426130      -1.20772432       1.45298305       0.00000000
Si      -1.56473596      -1.12348873      -1.46794992       0.00000000
H        1.81949528      -3.01708722      -0.79169808       0.00000000
Si      -2.52253910       0.09171270       2.80590101       0.00000000
Si      -0.16809651       2.64202625      -2.69462098       0.00000000
Si       2.92755738       2.46036017      -0.06050935       0.00000000
Si      -2.59330286       2.89914762       0.20513079       0.00000000
H        2.03035304       3.20544849       0.91872688       0.00000000
