10
Lattice="16.290000149 0.0 0.0 0.0 16.290000149 0.0 0.0 0.0 29.1751946751" Properties=species:S:1:pos:R:3:initial_magmoms:R:1 pbc="T T T"
Si       1.76788856       1.00004311       1.16411944       0.00000000
Si       1.34449516      -1.31178484      -1.41272128       0.00000000
Si      -1.23334849       1.48709782      -1.36017675       0.00000000
Si      -1.32537070      -1.28076868       1.48446308       0.00000000
H       -3.15332049      -0.80630614      -1.57572309       0.00000000
Si      -2.30840705       0.47205162       2.76639196       0.00000000
Si      -2.50748714       0.01930365      -2.65345478       0.00000000
Si       3.42722055      -0.64453015       1.26795396       0.00000000
Si       2.78787063      -2.51315606      -0.04034929       0.00000000
Si       2.69203655       2.72953613      -0.11661325       0.00000000
