10
Lattice="16.290000149 0.0 0.0 0.0 16.290000149 0.0 0.0 0.0 29.1751946751" Properties=species:S:1:pos:R:3:initial_magmoms:R:1 pbc="T T T"
Si       1.81755677      -0.88718599       1.14818979       0.00000000
Si      -0.88019758       1.77574034       1.28671361       0.00000000
Si       1.11544147       1.44441802      -1.55191613       0.00000000
Si      -1.02610711      -2.14653332      -0.39275647       0.00000000
H       -1.93038131      -0.58165075      -1.88906468       0.00000000
Si       2.60244155       2.45781893      -0.08212817       0.00000000
Si      -0.05408280      -2.55204355      -2.54486471       0.00000000
Si      -1.95937751       0.61102162       2.99445446       0.00000000
Si       0.99012250       3.24387660       1.44011678       0.00000000
H        3.19098297      -0.62284816      -1.75853486       0.00000000
