10
Lattice="16.290000149 0.0 0.0 0.0 16.290000149 0.0 0.0 0.0 29.1751946751" Properties=species:S:1:pos:R:3:initial_magmoms:R:1 pbc="T T T"
Si      -1.34162812      -1.33270120       1.37307219       0.00000000
Si       1.37301895      -1.35850456      -1.32160714       0.00000000
Si       1.35971002       1.30807072       1.38914772       0.00000000
Si      -1.35560494       1.33485148      -1.37788609       0.00000000
Si      -0.07016103       2.75160909       2.51070055       0.00000000
Si      -0.00089595      -2.72292239      -2.65243365       0.00000000
Si      -2.77966047       0.03847698       2.60540323       0.00000000
Si       2.72753247       0.01646919      -2.66357857       0.00000000
Si      -2.72481203      -2.68310963       0.03323055       0.00000000
Si       2.71075376       2.69992091       0.04641773       0.00000000
