10
Lattice="16.290000149 0.0 0.0 0.0 16.290000149 0.0 0.0 0.0 29.1751946751" Properties=species:S:1:pos:R:3:initial_magmoms:R:1 pbc="T T T"
Si      -1.34346889      -1.32662503      -1.40671119       0.00000000
Si      -1.38482920       1.35044101       1.35597552       0.00000000
Si       1.35702217       1.34820928      -1.39145256       0.00000000
Si       1.39003809      -1.35913987       1.34824410       0.00000000
Si      -2.68369607      -2.67421529      -0.03340560       0.00000000
Si      -2.71555931       2.66620061      -0.08650445       0.00000000
Si       2.66548385      -2.71858925      -0.07212108       0.00000000
Si       0.02394630       2.71287146       2.67504442       0.00000000
Si       2.74599555       0.05240493       2.66130291       0.00000000
Si      -2.73821871      -0.03166776       2.71145507       0.00000000
