10
Lattice="16.290000149 0.0 0.0 0.0 16.290000149 0.0 0.0 0.0 29.1751946751" Properties=species:S:1:pos:R:3:initial_magmoms:R:1 pbc="T T T"
Si       1.32481684       1.33667059       1.33698247       0.00000000
Si      -1.41703453       1.34288033      -1.25443126       0.00000000
Si       1.23126337      -1.20155904      -1.59623909       0.00000000
Si      -1.46034964      -1.43677036       1.21473841       0.00000000
Si      -2.45594558      -0.51107481      -2.20690800       0.00000000
Si      -0.71030917      -2.05321654      -2.65943803       0.00000000
Si       2.62375852       2.62693308      -0.13573468       0.00000000
Si       2.64150628      -0.09892151       2.61287208       0.00000000
Si       2.53247600      -2.73187424      -0.27879524       0.00000000
Si      -0.11793960       2.66800017       2.62007836       0.00000000
