10
Lattice="16.290000149 0.0 0.0 0.0 16.290000149 0.0 0.0 0.0 29.1751946751" Properties=species:S:1:pos:R:3:initial_magmoms:R:1 pbc="T T T"
Si      -1.32481684      -1.33667059      -1.33698247       0.00000000
Si       1.31668944      -1.43559210       1.27588961       0.00000000
Si      -1.44275644       1.33132958       1.28309589       0.00000000
Si       1.29894168       1.29026249      -1.47271715       0.00000000
Si       2.63077149      -0.05171261       2.63994667       0.00000000
Si      -0.07423353       2.68022305       2.62104114       0.00000000
Si      -2.74185137       0.00620975      -2.59141373       0.00000000
Si       2.66113768       2.68506118      -0.15372410       0.00000000
Si      -0.15130152       2.67580846      -2.69880762       0.00000000
Si      -0.08164548      -2.77023181       2.61080065       0.00000000
