10
Lattice="16.290000149 0.0 0.0 0.0 16.290000149 0.0 0.0 0.0 29.1751946751" Properties=species:S:1:pos:R:3:initial_magmoms:R:1 pbc="T T T"
Si      -1.38769624      -1.27482283      -1.37729442       0.00000000
Si       1.20308167      -1.39701412       1.44099496       0.00000000
Si      -1.41952690       1.38246715       1.28269619       0.00000000
Si       1.87566320       0.80106076      -1.19379237       0.00000000
Si       2.51871095      -2.72002603       0.04051851       0.00000000
Si       2.63171468       0.00721647       2.68292173       0.00000000
Si       2.68426622       2.66238875      -0.01519444       0.00000000
Si       3.50865426      -0.93392200      -1.11202130       0.00000000
Si      -0.09909207       2.72342738       2.67705751       0.00000000
Si      -2.72381672      -2.68211106      -0.02603886       0.00000000
