10
Lattice="16.290000149 0.0 0.0 0.0 16.290000149 0.0 0.0 0.0 29.1751946751" Properties=species:S:1:pos:R:3:initial_magmoms:R:1 pbc="T T T"
Si      -1.36219601      -1.39479868      -1.31899305       0.00000000
Si       1.29410693      -1.35283564       1.43209361       0.00000000
Si      -1.35033154       1.32670648       1.40676954       0.00000000
Si       1.37400938       1.36125757      -1.36159758       0.00000000
Si      -2.66113768      -2.68506118       0.15372410       0.00000000
Si      -2.81243920      -0.00925272      -2.54508352       0.00000000
Si       0.06971957      -2.70332064      -2.67033263       0.00000000
Si       2.69444422       2.70221780       0.03276374       0.00000000
Si       2.65029832      -2.74822728       0.14319186       0.00000000
Si      -2.68019698       2.73566117       0.09563629       0.00000000
