10
Lattice="16.290000149 0.0 0.0 0.0 16.290000149 0.0 0.0 0.0 29.1751946751" Properties=species:S:1:pos:R:3:initial_magmoms:R:1 pbc="T T T"
Si       1.33881810      -1.35904213       1.36324015       0.00000000
Si      -1.35183381      -1.35268903      -1.36140211       0.00000000
Si      -1.32757800       1.34894233       1.39547874       0.00000000
Si       1.35869190       1.35182566      -1.36265664       0.00000000
Si       2.68997587       0.02733462       2.68604347       0.00000000
Si      -2.67036271       2.70689303       0.02643273       0.00000000
Si       0.03636743      -2.71371854      -2.68467224       0.00000000
Si      -2.69012248      -2.70976007       0.01943068       0.00000000
Si      -2.69702944       0.02808396      -2.71606475       0.00000000
Si       2.69895166       2.71456562       0.00233402       0.00000000
