10
Lattice="16.290000149 0.0 0.0 0.0 16.290000149 0.0 0.0 0.0 29.1751946751" Properties=species:S:1:pos:R:3:initial_magmoms:R:1 pbc="T T T"
Si       1.30385161      -1.38132685       1.37374322       0.00000000
Si      -1.37306782      -1.38427534      -1.30877006       0.00000000
Si      -1.32484942       1.37015191       1.37278044       0.00000000
Si       1.35433432       1.34807896      -1.37304301       0.00000000
Si      -2.68363091       2.69640227      -0.01776769       0.00000000
Si       2.68410332      -0.02181231       2.70737054       0.00000000
Si      -2.69659775      -0.01940139      -2.70118540       0.00000000
Si      -0.00192222      -2.72395844      -2.67419834       0.00000000
Si       2.69661404       2.70865235      -0.01855542       0.00000000
Si      -2.66507660       0.02256165       2.74608602       0.00000000
