10
Lattice="16.290000149 0.0 0.0 0.0 16.290000149 0.0 0.0 0.0 29.1751946751" Properties=species:S:1:pos:R:3:initial_magmoms:R:1 pbc="T T T"
Si       1.81084529       1.32722613       0.60372230       0.00000000
Si      -0.73054135      -0.34465405       2.26204037       0.00000000
Si      -1.21969747       1.87154020      -0.95154897       0.00000000
Si       1.61484400      -1.52927426      -1.07580613       0.00000000
H        0.71478892      -2.52346926       0.98842642       0.00000000
H       -1.19299816      -2.93977651      -0.25884233       0.00000000
Si      -0.27179865      -2.87000644      -1.46593683       0.00000000
Si       0.47763909       2.87394536       1.76118980       0.00000000
Si      -1.45968175       1.84500379       2.66535826       0.00000000
Si      -1.16001091      -1.44956729      -3.05840648       0.00000000
