10
Lattice="16.290000149 0.0 0.0 0.0 16.290000149 0.0 0.0 0.0 29.1751946751" Properties=species:S:1:pos:R:3:initial_magmoms:R:1 pbc="T T T"
Si       1.34629390       1.21391973       1.48258128       0.00000000
Si       1.16978524      -1.59311282      -1.28685949       0.00000000
Si      -1.47811682      -1.30605044       1.37341645       0.00000000
Si      -0.28594945       1.82630482      -1.56866269       0.00000000
Si       2.48737421      -0.16384450      -2.62850999       0.00000000
Si       2.68241438       2.62120796       0.13132572       0.00000000
Si       0.64608780       1.00826337      -3.56188282       0.00000000
Si      -0.08562167       2.52244169       2.83392086       0.00000000
Si       2.52816437      -2.83167411       0.17198135       0.00000000
Si       2.62551341      -0.15814300       2.87059992       0.00000000
