10
Lattice="16.290000149 0.0 0.0 0.0 16.290000149 0.0 0.0 0.0 29.1751946751" Properties=species:S:1:pos:R:3:initial_magmoms:R:1 pbc="T T T"
Si       1.37692855       1.35539317      -1.33216856       0.00000000
Si       1.36930483      -1.34180731       1.35361233       0.00000000
Si      -1.32002758       1.36832743       1.38380866       0.00000000
Si      -1.36660069      -1.36216981      -1.35232862       0.00000000
Si      -0.01997154      -2.70138701       2.66661279       0.00000000
Si      -0.00570150       2.71464545      -2.65430086       0.00000000
Si       2.72751618      -0.02119329      -2.68085029       0.00000000
Si      -2.68333769       0.01720224       2.73286966       0.00000000
Si      -2.70998813       2.71668332       0.05070649       0.00000000
Si       2.72173322      -2.71182890       0.00291752       0.00000000
