10
Lattice="16.290000149 0.0 0.0 0.0 16.290000149 0.0 0.0 0.0 29.1751946751" Properties=species:S:1:pos:R:3:initial_magmoms:R:1 pbc="T T T"
Si      -0.38266839      -0.64583335      -2.22341241       0.00000000
Si      -1.99322813      -0.59912992       1.17094644       0.00000000
Si       0.76973509       2.04418325       1.00776957       0.00000000
Si       1.48844989      -1.86847931       0.35185285       0.00000000
H       -2.25518762       2.08197605      -0.27363415       0.00000000
Si       1.78986377       0.70542217       2.62611762       0.00000000
H        2.74971945       1.95422987      -0.05890472       0.00000000
Si      -2.14602833      -2.13190490      -1.88988159       0.00000000
H       -0.44945739       3.28725687      -1.35702583       0.00000000
Si      -1.06484473      -1.64377504       3.00446155       0.00000000
