10
Lattice="16.290000149 0.0 0.0 0.0 16.290000149 0.0 0.0 0.0 29.1751946751" Properties=species:S:1:pos:R:3:initial_magmoms:R:1 pbc="T T T"
Si       1.39935988       1.41821882       1.25622553       0.00000000
Si      -1.26104149       1.39225581      -1.43048897       0.00000000
Si       1.43016427      -1.28203930      -1.41170014       0.00000000
Si      -1.29645595      -1.59006691       1.27726085       0.00000000
Si      -2.52688853      -2.72668538      -0.34893533       0.00000000
Si       0.28302246      -2.67574655       2.59939314       0.00000000
Si      -2.58551624       2.78640453      -0.06619852       0.00000000
Si       2.86934060       0.12370968       2.52423784       0.00000000
Si      -2.56761353       0.07833861      -2.87690760       0.00000000
Si       2.86830894      -2.63259434      -0.12501571       0.00000000
