10
Lattice="16.290000149 0.0 0.0 0.0 16.290000149 0.0 0.0 0.0 29.1751946751" Properties=species:S:1:pos:R:3:initial_magmoms:R:1 pbc="T T T"
Si      -1.53678232      -1.31201290      -1.19034794       0.00000000
Si      -1.41037192       1.17636607       1.46978796       0.00000000
Si       1.38932524      -1.31572702       1.42838836       0.00000000
Si       0.78239242       1.49353563      -1.71334248       0.00000000
H        1.19400814      -2.03704823      -2.24774452       0.00000000
Si      -1.28495521       2.21868336      -2.55980241       0.00000000
Si      -0.15517854      -2.64583811      -2.51253859       0.00000000
Si      -2.57232949       0.23203476      -2.67221443       0.00000000
Si       0.03616380       2.61780465       2.74421881       0.00000000
H       -0.60194809       3.77507721       0.01277874       0.00000000
