10
Lattice="16.290000149 0.0 0.0 0.0 16.290000149 0.0 0.0 0.0 29.1751946751" Properties=species:S:1:pos:R:3:initial_magmoms:R:1 pbc="T T T"
Si      -1.41560101      -1.32675535       1.23784516       0.00000000
Si       1.36247932      -1.36997272      -1.26162294       0.00000000
Si       1.23043258       1.13661847       1.62619618       0.00000000
Si      -1.39564576       1.45026613      -1.19352804       0.00000000
Si      -0.37102104       1.06269445       3.41729055       0.00000000
Si       2.69939963       0.07732863      -2.51851951       0.00000000
Si      -2.49790862       0.09311364       2.73680831       0.00000000
Si      -0.05738967      -2.67957470      -2.57649062       0.00000000
Si       2.52688853       2.72668538       0.34893533       0.00000000
Si      -0.12126276      -2.62128908       2.66419125       0.00000000
