10
Lattice="16.290000149 0.0 0.0 0.0 16.290000149 0.0 0.0 0.0 29.1751946751" Properties=species:S:1:pos:R:3:initial_magmoms:R:1 pbc="T T T"
Si       1.37009653       1.36932112       1.32487477       0.00000000
Si      -1.32511006       1.38367261      -1.35991417       0.00000000
Si       1.37989496      -1.34826304      -1.34100865       0.00000000
Si      -1.35172792      -1.35139561       1.37333476       0.00000000
Si      -2.68348430      -2.70622514      -0.00994874       0.00000000
Si      -2.69363297       0.03477915      -2.69785943       0.00000000
Si       0.00452862       2.72064179       2.67449010       0.00000000
Si       2.69840594       0.00843822       2.69885138       0.00000000
Si       2.70436808       0.03567510      -2.70258581       0.00000000
Si      -2.69045642       2.73083933      -0.00962781       0.00000000
