10
Lattice="16.2900001489832 0.0 0.0 0.0 16.2900001489832 0.0 0.0 0.0 29.2172554554744" Properties=species:S:1:pos:R:3:initial_magmoms:R:1 pbc="T T T"
Si      -1.67991115      -0.89505406       1.38413242       0.00000000
Si       1.00620073       1.84430332       1.14930749       0.00000000
Si       1.80639323      -1.60114411       0.06759850       0.00000000
Si      -1.26723658       0.16998615      -2.04877239       0.00000000
Si      -0.39861256      -2.16547859       2.86029042       0.00000000
Si       1.89642806       0.43767972      -3.04925887       0.00000000
Si       2.20802318       0.60992286       2.79995095       0.00000000
Si      -2.63688350      -2.58427820       0.05296153       0.00000000
Si       2.47767156      -1.68221945      -2.19585205       0.00000000
Si       0.90706468      -3.38592540       1.33268959       0.00000000
