10
Lattice="16.2900001489832 0.0 0.0 0.0 16.2900001489832 0.0 0.0 0.0 29.2172554554744" Properties=species:S:1:pos:R:3:initial_magmoms:R:1 pbc="T T T"
Si      -1.40807503       1.44208546      -1.21112244       0.00000000
Si       1.38038203       1.41426051       1.29222662       0.00000000
Si       1.33757191      -1.32746543      -1.42886988       0.00000000
Si      -1.39857796      -1.37547206       1.33812693       0.00000000
Si      -0.18717210      -2.59042914      -2.70358367       0.00000000
Si       2.45117261       0.16281383      -2.91196114       0.00000000
Si       2.72442107       0.04040246       2.68606501       0.00000000
Si      -0.00755856      -2.70595783       2.72682308       0.00000000
Si       2.72399753      -2.70947647      -0.08787090       0.00000000
Si       0.02818170       2.69596912       2.77324930       0.00000000
