10
Lattice="16.2900001489832 0.0 0.0 0.0 16.2900001489832 0.0 0.0 0.0 29.2172554554744" Properties=species:S:1:pos:R:3:initial_magmoms:R:1 pbc="T T T"
Si      -1.32406750       1.31795224       1.37947226       0.00000000
Si      -1.65239246      -1.11195052      -1.24527332       0.00000000
Si       1.40807503      -1.44208546       1.21112244       0.00000000
Si       1.01087596       1.63405969      -1.36935725       0.00000000
Si       2.22591449       0.11148387      -2.79861864       0.00000000
Si      -2.54505188       2.53491299      -0.23206097       0.00000000
Si      -0.31853466      -2.57480394      -2.58606311       0.00000000
Si      -3.39837096       0.64356252      -1.39896196       0.00000000
Si       2.78845707      -0.02782495       2.50334906       0.00000000
Si       0.07697025       2.66417414       2.67722094       0.00000000
