10
Lattice="16.2900001489832 0.0 0.0 0.0 16.2900001489832 0.0 0.0 0.0 29.2172554554744" Properties=species:S:1:pos:R:3:initial_magmoms:R:1 pbc="T T T"
Si      -1.35840682       1.40335005      -1.28856862       0.00000000
Si       1.34451145       1.35583864       1.36546843       0.00000000
Si      -1.36345672      -1.32962327       1.39997401       0.00000000
Si       1.35915616      -1.34705357      -1.39830863       0.00000000
Si       0.07040538      -2.72854332       2.61237324       0.00000000
Si      -2.78267412       0.05091433      -2.57219660       0.00000000
Si       0.02559159       2.78845619      -2.56808573       0.00000000
Si       2.74626597       0.00870937       2.66908394       0.00000000
Si       2.75017557      -2.67753933      -0.00961248       0.00000000
Si      -2.74025495       0.10052390       2.70893627       0.00000000
