10
Lattice="16.2900001489832 0.0 0.0 0.0 16.2900001489832 0.0 0.0 0.0 29.2172554554744" Properties=species:S:1:pos:R:3:initial_magmoms:R:1 pbc="T T T"
Si      -1.35928648       1.41029047      -1.30715079       0.00000000
Si       1.40452381       1.39163842       1.31030626       0.00000000
Si       1.35220033      -1.28170861      -1.48102268       0.00000000
Si      -1.44140437      -1.36854898       1.32865469       0.00000000
Si      -0.03964986      -2.71567825       2.63227020       0.00000000
Si       2.69623937      -2.65556667      -0.08718429       0.00000000
Si       0.00374670       2.56440440       2.78980964       0.00000000
Si      -2.76032424       0.06406857      -2.60489947       0.00000000
Si       0.01904301       2.77120596      -2.68353771       0.00000000
Si      -0.02818170      -2.69596912      -2.77324930       0.00000000
