10
Lattice="16.2900001489832 0.0 0.0 0.0 16.2900001489832 0.0 0.0 0.0 29.2172554554744" Properties=species:S:1:pos:R:3:initial_magmoms:R:1 pbc="T T T"
Si       1.40175451      -1.34712927       1.30361550       0.00000000
Si      -1.34451145      -1.35583864      -1.36546843       0.00000000
Si      -1.22616460       1.30327495       1.56785636       0.00000000
Si       1.44140437       1.36854898      -1.32865469       0.00000000
Si       0.74898163       2.02891300       2.81966967       0.00000000
Si       2.51375879       0.29585247       2.56089244       0.00000000
Si      -2.62316243       2.68945622       0.15493911       0.00000000
Si      -2.70291827       0.04751141      -2.65403705       0.00000000
Si      -2.70796817      -2.68546191       0.03450558       0.00000000
Si       0.08211789       2.77883945      -2.63580548       0.00000000
