10
Lattice="16.2900001489832 0.0 0.0 0.0 16.2900001489832 0.0 0.0 0.0 29.2172554554744" Properties=species:S:1:pos:R:3:initial_magmoms:R:1 pbc="T T T"
Si       0.14683806       0.57265867       2.33241350       0.00000000
Si       0.69616945       1.90404038      -1.35851473       0.00000000
Si      -1.97514623      -0.72563806      -1.25181331       0.00000000
Si       1.76477717      -1.73306054      -0.25877723       0.00000000
Si      -0.74898163      -2.02891300      -2.81966967       0.00000000
Si       2.09694656       0.73127440      -2.83801811       0.00000000
Si       0.65277289      -3.37604227      -1.51605417       0.00000000
Si       2.49671945       0.54406972       2.78732617       0.00000000
Si       3.45776430      -0.58686355      -1.43614497       0.00000000
H       -2.62189181       2.64976400       0.82331304       0.00000000
