10
Lattice="16.2900001489832 0.0 0.0 0.0 16.2900001489832 0.0 0.0 0.0 29.2172554554744" Properties=species:S:1:pos:R:3:initial_magmoms:R:1 pbc="T T T"
Si      -1.20475954       1.45003807      -1.36625730       0.00000000
Si       1.81853417      -0.56487205      -1.39789959       0.00000000
Si      -1.46613259      -1.87351292      -0.01528062       0.00000000
Si       0.74559331       0.65875132       2.16686853       0.00000000
Si       0.84128077      -2.44033976      -2.44151073       0.00000000
Si       0.09477522      -3.54121797      -0.51942437       0.00000000
Si       3.50226858      -1.62548137      -0.05653539       0.00000000
Si      -3.55503189       1.16315488      -1.06038185       0.00000000
Si       2.47857239       2.40598415       1.80653212       0.00000000
Si      -1.07035075       1.05213853      -3.69455117       0.00000000
