10
Lattice="16.2900001489832 0.0 0.0 0.0 16.2900001489832 0.0 0.0 0.0 29.2172554554744" Properties=species:S:1:pos:R:3:initial_magmoms:R:1 pbc="T T T"
Si      -2.10515672      -0.91047254       0.38479125       0.00000000
Si       1.08897022       0.11906361       2.06589370       0.00000000
Si       1.71088985      -1.09690182      -1.22338492       0.00000000
Si      -0.63845398       2.01406304      -1.08369722       0.00000000
Si       2.76050994       1.62020341       1.15863948       0.00000000
Si       3.13437033       0.94280005      -1.15428611       0.00000000
Si      -2.80249905      -0.81990177      -1.92334271       0.00000000
Si       1.66809602      -2.26403309       2.22401749       0.00000000
Si      -3.26927271       0.80738128       1.54164848       0.00000000
Si      -2.34222509       1.42658047      -2.57672819       0.00000000
