10
Lattice="16.2900001489832 0.0 0.0 0.0 16.2900001489832 0.0 0.0 0.0 29.2172554554744" Properties=species:S:1:pos:R:3:initial_magmoms:R:1 pbc="T T T"
Si      -1.85546360      -1.52928892      -0.16829139       0.00000000
Si       0.03790683       0.70910371      -2.30883518       0.00000000
Si       0.14265153       1.80310754       1.60911113       0.00000000
Si       1.32128191      -2.00562482       0.38070084       0.00000000
Si      -0.81041122      -2.63844245      -2.12508786       0.00000000
Si       2.05822523      -0.40553955      -2.83670333       0.00000000
H       -2.83366182       2.01367208       0.91306845       0.00000000
Si       1.63286075      -2.62286921      -1.90920156       0.00000000
Si       0.58088512       0.70410268       3.66561674       0.00000000
Si      -1.86196331       3.06237342       1.39117962       0.00000000
