10
Lattice="16.2900001489832 0.0 0.0 0.0 16.2900001489832 0.0 0.0 0.0 29.2172554554744" Properties=species:S:1:pos:R:3:initial_magmoms:R:1 pbc="T T T"
Si       1.46489455      -0.62454232      -1.68472538       0.00000000
Si      -0.99904942      -2.00712350       0.72490933       0.00000000
Si      -1.53948646       1.24989913      -1.33189781       0.00000000
Si       1.32893821       1.17025732       1.63233884       0.00000000
Si      -2.53925264       2.24295383       0.55249830       0.00000000
Si      -3.21569490      -1.28712178       0.98985140       0.00000000
Si       0.32576742      -2.38780451      -2.70195335       0.00000000
Si       3.02344032      -2.06257466      -0.70489551       0.00000000
Si      -0.12693168       2.64143981      -2.65511809       0.00000000
Si       0.31934916      -2.80049538       2.52451696       0.00000000
