10
Lattice="16.2900001489832 0.0 0.0 0.0 16.2900001489832 0.0 0.0 0.0 29.2172554554744" Properties=species:S:1:pos:R:3:initial_magmoms:R:1 pbc="T T T"
Si       1.42921945      -1.28831095      -1.34519166       0.00000000
Si       1.38821752       1.28050804       1.39512395       0.00000000
Si      -1.27606087      -1.37769418       1.44555293       0.00000000
Si      -1.35084826       1.27869985      -1.49317706       0.00000000
Si      -2.66693366      -2.58186728      -0.08879124       0.00000000
Si       0.02818170      -2.63453285      -2.64294034       0.00000000
Si      -0.08418672       2.64772775       2.63974981       0.00000000
Si      -2.65355957       2.71221986      -0.15280625       0.00000000
Si       0.03249855       2.62529642      -2.80327295       0.00000000
Si       2.74708047       2.71085150       0.03047360       0.00000000
