10
Lattice="16.2900001489832 0.0 0.0 0.0 16.2900001489832 0.0 0.0 0.0 29.2172554554744" Properties=species:S:1:pos:R:3:initial_magmoms:R:1 pbc="T T T"
Si       1.47779623       0.56158147       1.81617382       0.00000000
Si       0.61266691      -2.29540763      -0.51688247       0.00000000
Si       0.90018541       1.71747101      -1.52575430       0.00000000
Si      -2.22625658       0.16454529       1.07434770       0.00000000
H       -0.59401486       2.71684622       0.42400081       0.00000000
H       -2.15606297      -0.21830229      -2.02598293       0.00000000
Si      -1.92582011       2.52781706       1.13339577       0.00000000
Si       2.96254830      -2.32399658      -0.06196980       0.00000000
Si       2.85229758      -1.32752098       2.07059768       0.00000000
Si       2.42900192       0.51763104      -2.87676019       0.00000000
