10
Lattice="16.2900001489832 0.0 0.0 0.0 16.2900001489832 0.0 0.0 0.0 29.2172554554744" Properties=species:S:1:pos:R:3:initial_magmoms:R:1 pbc="T T T"
Si       1.63929530      -0.70085771      -1.57025218       0.00000000
Si      -2.27076086      -0.66327994      -0.22447617       0.00000000
Si       0.46027395       2.24648224      -0.65338548       0.00000000
Si       0.69734233      -0.09057077       2.30813396       0.00000000
Si       2.80249905       0.81990177       1.92334271       0.00000000
Si       2.16404507       2.83396481       0.83964549       0.00000000
Si      -2.01098423       2.45751920       1.97888471       0.00000000
Si      -1.26447868       3.55839741       0.05679834       0.00000000
Si      -3.54959103       1.09598469       0.82988692       0.00000000
Si      -2.72811891      -0.79303793      -2.57453690       0.00000000
