10
Lattice="16.2900001489832 0.0 0.0 0.0 16.2900001489832 0.0 0.0 0.0 29.2172554554744" Properties=species:S:1:pos:R:3:initial_magmoms:R:1 pbc="T T T"
Si       1.36249561      -1.26934939       1.46435423       0.00000000
Si       1.16084170       1.52278921      -1.39760741       0.00000000
Si      -1.45393138       1.35524656       1.30364472       0.00000000
Si      -0.70817518      -1.91342342      -1.22125644       0.00000000
H       -1.09183726      -1.50724855      -2.62949456       0.00000000
Si       2.37400688       0.02308293      -2.71624059       0.00000000
H       -1.26197002       0.14574663      -3.43974748       0.00000000
Si       2.67348224      -2.59248836       0.06198441       0.00000000
Si      -0.05056416       2.73774630       2.64410318       0.00000000
Si      -2.63446769      -2.77443138      -0.12594098       0.00000000
