10
Lattice="16.2900001489832 0.0 0.0 0.0 16.2900001489832 0.0 0.0 0.0 29.2172554554744" Properties=species:S:1:pos:R:3:initial_magmoms:R:1 pbc="T T T"
Si      -1.39289275       1.38093589       1.31203007       0.00000000
Si       1.36101322      -1.31492881       1.44400442       0.00000000
Si       1.38873880       1.48708153      -1.23938137       0.00000000
Si      -1.35356869      -1.40048389      -1.38974213       0.00000000
Si       2.75980296      -2.58167180       0.01931261       0.00000000
Si       2.69972543       0.16394256      -2.64175120       0.00000000
Si       0.01726740       2.72122823       2.63320515       0.00000000
Si      -2.60822450      -0.01800045      -2.82967658       0.00000000
Si       0.08700489      -2.68895774      -2.76215843       0.00000000
Si       0.02624319       2.75643093      -2.70373560       0.00000000
