10
Lattice="16.2900001489832 0.0 0.0 0.0 16.2900001489832 0.0 0.0 0.0 29.2172554554744" Properties=species:S:1:pos:R:3:initial_magmoms:R:1 pbc="T T T"
Si       1.41016015       1.34029234       1.32117507       0.00000000
Si       1.39289275      -1.38093589      -1.31203007       0.00000000
Si      -1.37828062       1.38354229      -1.32815800       0.00000000
Si      -1.37003788      -1.34050411       1.38738138       0.00000000
Si       2.78163156       0.10614564      -2.55141144       0.00000000
Si      -2.64673406      -2.69449634      -0.05130550       0.00000000
Si       0.07982100       2.73175158       2.63901938       0.00000000
Si      -2.71347419       2.70813107       0.14091482       0.00000000
Si      -0.03479544       2.73074159      -2.71212095       0.00000000
Si       2.75390598      -2.69586470       0.13197434       0.00000000
