10
Lattice="16.2900001489832 0.0 0.0 0.0 16.2900001489832 0.0 0.0 0.0 29.2172554554744" Properties=species:S:1:pos:R:3:initial_magmoms:R:1 pbc="T T T"
Si       1.42614064      -1.33221250      -1.32324950       0.00000000
Si      -1.27568620       1.32084208      -1.49697530       0.00000000
Si       1.35472528       1.48871053       1.26370473       0.00000000
Si      -1.40879179      -1.47999538       1.28336795       0.00000000
Si       2.54404190       0.06843429       2.65985128       0.00000000
Si      -2.65952171      -0.01350441       2.60270233       0.00000000
Si      -2.60602535       2.71230131      -0.17913099       0.00000000
Si       0.06805962      -2.71531496      -2.68617603       0.00000000
Si       2.78479182       0.06726141      -2.66134136       0.00000000
Si       0.01606194       2.73057869       2.74224395       0.00000000
