10
Lattice="16.2900001489832 0.0 0.0 0.0 16.2900001489832 0.0 0.0 0.0 29.2172554554744" Properties=species:S:1:pos:R:3:initial_magmoms:R:1 pbc="T T T"
Si       0.25293483       1.43081587      -1.97514490       0.00000000
Si      -0.65505349       0.46775106       2.34675918       0.00000000
Si      -1.64333359      -1.86268007      -0.00625249       0.00000000
Si       2.48740157      -0.22287978       0.44629358       0.00000000
H       -2.41947227       0.71829127      -1.18578231       0.00000000
H       -1.35435876      -2.60141528       1.29075991       0.00000000
Si       2.78783805       2.14039199       0.50534165       0.00000000
H        1.32823774      -2.92099251      -1.54045058       0.00000000
Si       1.36677988       3.24022764      -0.99899640       0.00000000
H        2.55759518      -0.60572737      -2.65403705       0.00000000
