10
Lattice="16.2900001489832 0.0 0.0 0.0 16.2900001489832 0.0 0.0 0.0 29.2172554554744" Properties=species:S:1:pos:R:3:initial_magmoms:R:1 pbc="T T T"
Si      -1.08263341      -0.76541335      -0.75786639       0.00000000
Si       1.34366437       1.06786490       1.61025060       0.00000000
Si       2.62249454      -0.69139973       0.55588750       0.00000000
Si       2.16513650      -0.82115773      -1.79417322       0.00000000
Si      -1.84331126      -2.19363748       0.92595326       0.00000000
Si       0.17800083      -1.98043396      -2.31277951       0.00000000
Si      -2.65575872       0.97398562      -1.16982969       0.00000000
Si       1.82671175       1.48746272      -2.22501087       0.00000000
Si      -0.15488532       0.33558541       3.24036893       0.00000000
Si      -2.25248348      -0.35472127       2.35981929       0.00000000
