10
Lattice="16.2900001489832 0.0 0.0 0.0 16.2900001489832 0.0 0.0 0.0 29.2172554554744" Properties=species:S:1:pos:R:3:initial_magmoms:R:1 pbc="T T T"
Si       1.43366662      -1.31875696      -1.30270977       0.00000000
Si       1.38795688       1.36967950       1.33411832       0.00000000
Si      -1.34943103      -1.44246322       1.30414141       0.00000000
Si      -1.39101940       1.33048576      -1.38869615       0.00000000
Si       0.02204037      -2.67660992      -2.56844510       0.00000000
Si      -2.67977018      -0.05100399       2.62198572       0.00000000
Si      -0.00390960       2.68624870       2.67869641       0.00000000
Si       2.71104698      -2.69604389       0.13977535       0.00000000
Si      -2.75017557       2.67753933       0.00961248       0.00000000
Si       0.00755856       2.70595783      -2.72682308       0.00000000
