10
Lattice="16.2900001489832 0.0 0.0 0.0 16.2900001489832 0.0 0.0 0.0 29.2172554554744" Properties=species:S:1:pos:R:3:initial_magmoms:R:1 pbc="T T T"
Si      -1.30680010      -1.37194381       1.36070602       0.00000000
Si       1.33033915      -1.39145923      -1.31784431       0.00000000
Si       1.35448093       1.28568826       1.40280809       0.00000000
Si      -1.43386210       1.39892005      -1.21239923       0.00000000
H       -2.06456204      -0.45696708       2.27082353       0.00000000
Si      -0.18575487       2.44636706       2.63700339       0.00000000
Si      -2.79329520      -0.02362050      -2.49810456       0.00000000
Si       2.67977018       0.05100399      -2.62198572       0.00000000
Si       2.60602535      -2.71230131       0.17913099       0.00000000
Si      -0.07040538       2.72854332      -2.61237324       0.00000000
