10
Lattice="16.2900001489832 0.0 0.0 0.0 16.2900001489832 0.0 0.0 0.0 29.2172554554744" Properties=species:S:1:pos:R:3:initial_magmoms:R:1 pbc="T T T"
Si      -1.54023580       1.16067880       1.23419530       0.00000000
Si      -1.35448093      -1.28568826      -1.40280809       0.00000000
Si       1.26760636      -1.26741088       1.51856685       0.00000000
Si       1.32137965       1.45156443      -1.34609739       0.00000000
Si       2.60626970      -2.50927904       0.04002764       0.00000000
Si       2.32070600       0.45999702       2.78767678       0.00000000
Si      -2.66128103      -2.65763207      -0.04210207       0.00000000
Si      -0.02414178      -2.67714749      -2.72065239       0.00000000
Si       2.71324613       0.13499523      -2.69067549       0.00000000
Si      -2.78834304       0.11323179      -2.61520732       0.00000000
