10
Lattice="16.2900001489832 0.0 0.0 0.0 16.2900001489832 0.0 0.0 0.0 29.2172554554744" Properties=species:S:1:pos:R:3:initial_magmoms:R:1 pbc="T T T"
Si      -1.41968980      -1.38013605       1.30960504       0.00000000
Si      -1.30701187       1.25441309      -1.56689219       0.00000000
Si       0.94980475       1.64740934       1.47111803       0.00000000
Si       1.50656437      -1.54580536      -1.16629440       0.00000000
Si       0.38597526       2.40061008      -2.74425994       0.00000000
Si      -2.41901615      -0.38856865      -2.82416913       0.00000000
Si      -0.57506959       3.53154334       1.47921121       0.00000000
Si      -2.47278944      -3.10754396       0.04049512       0.00000000
Si       1.93341125       0.63798157       3.41678272       0.00000000
Si      -0.30033873      -2.77271930       2.84935440       0.00000000
