10
Lattice="16.2900001489832 0.0 0.0 0.0 16.2900001489832 0.0 0.0 0.0 29.2172554554744" Properties=species:S:1:pos:R:3:initial_magmoms:R:1 pbc="T T T"
Si       1.31603653       1.30464982       1.47748447       0.00000000
Si      -1.38714238       1.49152870      -1.24847378       0.00000000
Si       1.35405739      -1.32284249      -1.48451414       0.00000000
Si      -1.33304329      -1.34136260       1.49621273       0.00000000
Si      -0.26225271      -2.59280928      -2.70797503       0.00000000
Si       2.68086161       2.66476709       0.13259667       0.00000000
Si      -2.66620061       2.71155197       0.29369770       0.00000000
Si       2.67040343      -2.72538561      -0.00538182       0.00000000
Si       2.66550014      -0.13269834       2.75299297       0.00000000
Si      -2.71342532      -2.75562310       0.20398611       0.00000000
