10
Lattice="16.2900001489832 0.0 0.0 0.0 16.2900001489832 0.0 0.0 0.0 29.2172554554744" Properties=species:S:1:pos:R:3:initial_magmoms:R:1 pbc="T T T"
Si      -1.31230612       1.41581604       1.37809029       0.00000000
Si       1.25991748      -1.41449003       1.43120726       0.00000000
Si      -1.38140830      -1.31325110      -1.42127339       0.00000000
Si       1.27309609       1.26927120      -1.55833154       0.00000000
Si       2.60379362       2.61329395      -0.21860351       0.00000000
Si       2.56448585      -2.74403098      -0.01066430       0.00000000
Si      -2.67312386       2.73395398      -0.02378285       0.00000000
Si      -2.72543105      -2.68993189      -0.04639700       0.00000000
Si      -0.19171701      -2.53059940       2.95605582       0.00000000
Si      -0.04305447      -2.66445433      -2.84254678       0.00000000
