10
Lattice="16.2900001489832 0.0 0.0 0.0 16.2900001489832 0.0 0.0 0.0 29.2172554554744" Properties=species:S:1:pos:R:3:initial_magmoms:R:1 pbc="T T T"
Si       1.29668401       1.17154423      -1.56490542       0.00000000
Si       1.09625185      -0.95136859       1.89266459       0.00000000
Si      -1.42089526       1.38219022       1.34703235       0.00000000
Si      -1.36971208      -1.36612828      -1.43652480       0.00000000
Si      -0.80588260      -2.11932902       2.77885317       0.00000000
Si      -2.33075693      -0.23519502       2.78694635       0.00000000
Si       3.15169149       2.00811719      -0.43986578       0.00000000
Si      -0.08635329       2.65150703      -2.76217011       0.00000000
Si      -2.86430331       2.60643260      -0.02784404       0.00000000
Si       2.21864915       0.81166555       3.10962172       0.00000000
