10
Lattice="16.2900001489832 0.0 0.0 0.0 16.2900001489832 0.0 0.0 0.0 29.2172554554744" Properties=species:S:1:pos:R:3:initial_magmoms:R:1 pbc="T T T"
Si      -0.07157826       2.35561547      -0.05399349       0.00000000
Si       1.67592662      -0.44685099      -1.60940330       0.00000000
Si      -2.08800335      -0.97891498      -0.64292571       0.00000000
Si       0.26329527      -0.41000301       2.36309162       0.00000000
Si      -1.75702313       0.70464025       2.89095978       0.00000000
Si       2.26174923       2.72635958      -0.00774257       0.00000000
Si      -3.08607537      -0.85468744       1.59219434       0.00000000
Si      -1.20111058      -2.74080882      -2.01505567       0.00000000
Si       2.42883902       1.75728377      -2.13288887       0.00000000
Si      -1.03221586       2.91819063       2.03804965       0.00000000
