10
Lattice="16.2900001489832 0.0 0.0 0.0 16.2900001489832 0.0 0.0 0.0 29.2172554554744" Properties=species:S:1:pos:R:3:initial_magmoms:R:1 pbc="T T T"
H       -0.74391544      -1.32136336       0.01697523       0.00000000
Si       0.56927035      -0.39521169       2.28195530       0.00000000
Si       1.91313020      -0.12746925      -1.41905288       0.00000000
Si      -1.57415158       1.07509114      -1.51649243       0.00000000
H        0.22708260      -2.63492381      -0.62673935       0.00000000
H       -1.93719053       1.48970422       1.68902032       0.00000000
H       -0.56122309       3.18371763       0.10953549       0.00000000
H       -0.43570863       3.32858460       0.85442942       0.00000000
Si       0.84540214      -0.99442306      -3.38508200       0.00000000
Si      -1.46088721      -0.52424478      -3.31072408       0.00000000
