10
Lattice="16.2900001489832 0.0 0.0 0.0 16.2900001489832 0.0 0.0 0.0 29.2172554554744" Properties=species:S:1:pos:R:3:initial_magmoms:R:1 pbc="T T T"
Si      -1.36950031       1.35627283      -1.38536538       0.00000000
Si      -1.41540553      -1.39022119       1.30405376       0.00000000
Si       1.36254448      -1.34514676      -1.43027231       0.00000000
Si       1.31351158       1.42332247       1.40815484       0.00000000
Si       0.02800251      -2.61446357       2.67893015       0.00000000
Si      -0.25159905       2.75691963       2.59773540       0.00000000
Si      -2.72758133      -0.02682963      -2.74829192       0.00000000
Si      -0.01084914       2.75574675      -2.72345725       0.00000000
Si      -2.79564096       2.68848533      -0.06211589       0.00000000
Si       2.74520712       2.76247452       0.05954477       0.00000000
