10
Lattice="16.2900001489832 0.0 0.0 0.0 16.2900001489832 0.0 0.0 0.0 29.2172554554744" Properties=species:S:1:pos:R:3:initial_magmoms:R:1 pbc="T T T"
Si       0.31667891       1.16162362      -2.00041783       0.00000000
Si       0.35851358       1.58975740       1.76104086       0.00000000
Si      -2.39215394      -0.62279929      -0.12791314       0.00000000
Si       1.92161729      -1.53213153      -0.45015025       0.00000000
Si      -2.44055153      -1.22307439      -2.39762642       0.00000000
Si       0.85463368       0.15004719       3.59582606       0.00000000
Si      -0.78229468      -0.13479975      -3.63848326       0.00000000
Si       2.64546344       1.20329344      -2.33960095       0.00000000
Si       3.65875032      -0.61054921       0.87657610       0.00000000
Si      -0.64123957       3.28351017      -1.84428082       0.00000000
