10
Lattice="16.2900001489832 0.0 0.0 0.0 16.2900001489832 0.0 0.0 0.0 29.2172554554744" Properties=species:S:1:pos:R:3:initial_magmoms:R:1 pbc="T T T"
Si      -1.42614064       1.33221250       1.32324950       0.00000000
Si       1.35865117       1.39947391      -1.33809187       0.00000000
Si      -1.35808102      -1.38310246      -1.36292653       0.00000000
Si       1.36950031      -1.35627283       1.38536538       0.00000000
Si      -2.70182684       2.65305458      -0.17372580       0.00000000
Si       2.67977018       0.01598049      -2.72474281       0.00000000
Si      -0.07141536       2.82092304       2.58695423       0.00000000
Si       2.73204479      -2.70141959      -0.04490692       0.00000000
Si      -0.04590522      -2.74649403       2.68941915       0.00000000
Si       0.04070871      -2.64984545      -2.78761834       0.00000000
