10
Lattice="16.2900001489832 0.0 0.0 0.0 16.2900001489832 0.0 0.0 0.0 29.2172554554744" Properties=species:S:1:pos:R:3:initial_magmoms:R:1 pbc="T T T"
Si       1.32111901      -1.38349342      -1.38665094       0.00000000
Si      -1.35865117      -1.39947391       1.33809187       0.00000000
Si      -1.27738036       1.37728693      -1.44248512       0.00000000
Si       1.38228796       1.36438525       1.36704617       0.00000000
Si       2.63699264       2.68752422      -0.16107473       0.00000000
Si      -2.68900661       0.01943397      -2.70822045       0.00000000
Si      -2.71104698       2.69604389      -0.13977535       0.00000000
Si       2.62734896      -0.06268392      -2.79536092       0.00000000
Si      -2.78479182      -0.06726141       2.66134136       0.00000000
Si       2.72458397      -2.74960542      -0.08566499       0.00000000
