10
Lattice="16.2900001489832 0.0 0.0 0.0 16.2900001489832 0.0 0.0 0.0 29.2172554554744" Properties=species:S:1:pos:R:3:initial_magmoms:R:1 pbc="T T T"
Si      -1.26063424       1.21502061       1.55491312       0.00000000
Si      -0.89505406       0.28080702      -2.15877535       0.00000000
Si       1.98713567       1.15927623       0.51860628       0.00000000
Si       0.31213269      -2.35436114       0.35969363       0.00000000
H       -0.17800083       1.98043396       2.31277951       0.00000000
H        0.25171308      -0.07946262      -3.41876950       0.00000000
H        2.80448643      -1.21917619       1.88787296       0.00000000
Si       2.56155365      -2.43033770       1.00253169       0.00000000
Si      -2.02131209      -0.21320352       3.23873277       0.00000000
Si       3.66370248       0.39710133      -1.02090934       0.00000000
