10
Lattice="16.2900001489832 0.0 0.0 0.0 16.2900001489832 0.0 0.0 0.0 29.2172554554744" Properties=species:S:1:pos:R:3:initial_magmoms:R:1 pbc="T T T"
Si      -1.33877737      -1.39867570      -1.35266251       0.00000000
Si      -1.33835383       1.35120322       1.42127339       0.00000000
Si       1.27770616      -1.40367673       1.44073208       0.00000000
Si       1.32105385       1.34103826      -1.47415955       0.00000000
Si       2.79888267      -0.17168031      -2.51637119       0.00000000
Si      -2.63666684      -2.71391402       0.15932169       0.00000000
Si       2.72969903       2.66236758      -0.11014905       0.00000000
Si      -2.68239287       2.72506127       0.02743500       0.00000000
Si      -2.72520299      -0.01666467      -2.69366149       0.00000000
Si       2.60754032      -0.07957665       2.83188248       0.00000000
