10
Lattice="16.2900001489832 0.0 0.0 0.0 16.2900001489832 0.0 0.0 0.0 29.2172554554744" Properties=species:S:1:pos:R:3:initial_magmoms:R:1 pbc="T T T"
Si      -1.43842330      -1.37441989       1.24567769       0.00000000
Si      -1.33144687       1.26985438      -1.48502544       0.00000000
Si       1.37393119      -1.43148376      -1.31232225       0.00000000
Si       1.20226717       1.42918687       1.51742738       0.00000000
Si       2.65390166       2.54529623      -0.00742118       0.00000000
Si      -2.72331335       2.58642358      -0.14044735       0.00000000
Si       2.40199310      -0.07032393       2.98261431       0.00000000
Si      -0.24910668      -2.79469614       2.64182424       0.00000000
Si       2.62863587      -0.10834479      -2.84044314       0.00000000
Si      -0.00835677      -2.79586902      -2.67936841       0.00000000
