10
Lattice="16.2900001489832 0.0 0.0 0.0 16.2900001489832 0.0 0.0 0.0 29.2172554554744" Properties=species:S:1:pos:R:3:initial_magmoms:R:1 pbc="T T T"
Si      -1.33180525      -0.18902916       0.70939496       0.00000000
Si       1.49420026      -0.99937522      -1.94975511       0.00000000
Si       2.47120931       0.86727961      -0.81127553       0.00000000
Si       0.59401486      -2.71684622      -0.42400081       0.00000000
Si       0.76962106       2.67849956      -0.73142477       0.00000000
Si      -1.01674036       1.86598694      -2.06422832       0.00000000
Si      -2.75286342       0.91080649      -0.79494309       0.00000000
Si      -1.08730864       1.20728449       2.55078327       0.00000000
Si      -1.63224172      -2.55230093       0.65034689       0.00000000
Si       2.07181109      -2.15526476       1.39217301       0.00000000
