10
Lattice="16.2900001489832 0.0 0.0 0.0 16.2900001489832 0.0 0.0 0.0 29.2172554554744" Properties=species:S:1:pos:R:3:initial_magmoms:R:1 pbc="T T T"
Si       1.17252163       1.25733079      -1.54822237       0.00000000
Si      -1.23818662      -1.42726465      -1.34650643       0.00000000
Si       1.53943759      -1.45771066       1.09360187       0.00000000
Si      -1.33385779       1.46285342       1.34078979       0.00000000
H       -0.88337413      -2.83475325      -0.94853820       0.00000000
Si      -2.48153717      -0.16270452       2.57466838       0.00000000
Si      -0.51779394       2.52311414      -2.57465377       0.00000000
Si       0.31853466       2.57480394       2.58606311       0.00000000
Si       2.54444915       2.68628781      -0.21255553       0.00000000
Si      -0.48544200      -1.09734328      -3.60178638       0.00000000
