10
Lattice="16.2900001489832 0.0 0.0 0.0 16.2900001489832 0.0 0.0 0.0 29.2172554554744" Properties=species:S:1:pos:R:3:initial_magmoms:R:1 pbc="T T T"
Si       0.30284739      -0.43326513       1.40836343       0.00000000
H       -1.50681198       0.67813642      -1.02976217       0.00000000
H        1.68409280       1.43910748      -0.89434019       0.00000000
H        2.65509083       0.12554703      -1.53805476       0.00000000
Si       1.15616647       1.45808533       2.57526441       0.00000000
Si      -0.74270998      -2.66866040      -1.66652303       0.00000000
Si      -1.63293731      -1.26203681       2.53204332       0.00000000
Si       2.04882590      -2.18877818       1.56205206       0.00000000
Si      -2.81396069       0.94788253      -1.73141456       0.00000000
Si       2.42800823       2.76047085      -0.91131542       0.00000000
