10
Lattice="16.2900001489832 0.0 0.0 0.0 16.2900001489832 0.0 0.0 0.0 29.2172554554744" Properties=species:S:1:pos:R:3:initial_magmoms:R:1 pbc="T T T"
Si      -1.98713567      -1.15927623      -0.51860628       0.00000000
Si      -0.33842475       2.30862045      -0.43083765       0.00000000
Si       0.45735804       0.12975800       2.35006073       0.00000000
Si       1.67656682      -0.76217490      -1.53951562       0.00000000
H        0.81735076      -2.37845242       1.36926668       0.00000000
H       -2.16513650       0.82115773       1.79417322       0.00000000
Si      -3.24776991       0.05574438       1.03630683       0.00000000
Si       0.57441799      -3.58961393       0.48392540       0.00000000
Si       1.53560944      -3.06201341      -1.57039826       0.00000000
Si       2.72811891       0.79303793       2.57453690       0.00000000
