10
Lattice="16.2900001489832 0.0 0.0 0.0 16.2900001489832 0.0 0.0 0.0 29.2172554554744" Properties=species:S:1:pos:R:3:initial_magmoms:R:1 pbc="T T T"
Si       1.37784829      -1.41177286       1.31918830       0.00000000
Si       1.42801644       1.42355053      -1.26593693       0.00000000
Si      -1.33543792       1.32608746       1.46542066       0.00000000
Si      -1.36922338      -1.39191535      -1.38690221       0.00000000
Si       0.03508866       2.77200417      -2.58114876       0.00000000
Si       2.65594280       0.08702118      -2.76472370       0.00000000
Si      -0.05388732      -2.84535804       2.57322212       0.00000000
Si      -2.67928148       0.03042972      -2.75001866       0.00000000
Si      -2.73890288       2.69219945       0.16443471       0.00000000
Si       2.73913420      -2.74488132      -0.11093792       0.00000000
