10
Lattice="16.2900001489832 0.0 0.0 0.0 16.2900001489832 0.0 0.0 0.0 29.2172554554744" Properties=species:S:1:pos:R:3:initial_magmoms:R:1 pbc="T T T"
Si       1.38334681       1.34659657      -1.31009589       0.00000000
Si      -1.30271131       1.43352001       1.34037081       0.00000000
Si       1.35084826      -1.27869985       1.49317706       0.00000000
Si      -1.33856560      -1.26307774      -1.53491683       0.00000000
Si      -2.67618313      -2.60584616      -0.11353825       0.00000000
Si      -2.62064400       0.05994720       2.70201178       0.00000000
Si       2.78006772      -2.56701080       0.14798540       0.00000000
Si       0.15804558      -2.69627195      -2.76129652       0.00000000
Si       0.12869100       2.72908002      -2.75003034       0.00000000
Si       2.73691550       2.74708047       0.07964624       0.00000000
