10
Lattice="16.2900001489832 0.0 0.0 0.0 16.2900001489832 0.0 0.0 0.0 29.2172554554744" Properties=species:S:1:pos:R:3:initial_magmoms:R:1 pbc="T T T"
Si      -1.44340804       1.22424238      -1.37487639       0.00000000
Si      -0.90986167      -1.61738524       1.43991400       0.00000000
Si       1.42089526      -1.38219022      -1.34703235       0.00000000
Si       0.70187095       1.63398475       1.61074729       0.00000000
Si       2.51714711      -2.33355881       0.54563225       0.00000000
Si      -0.02800251       2.61446357      -2.67893015       0.00000000
Si       2.32622831       2.88701157       0.51901533       0.00000000
Si      -3.25974306      -1.58879629       0.98500133       0.00000000
Si      -1.02011239      -0.62090965       3.57248148       0.00000000
Si       0.61501267      -3.50151924       1.43182082       0.00000000
