10
Lattice="16.2900001489832 0.0 0.0 0.0 16.2900001489832 0.0 0.0 0.0 29.2172554554744" Properties=species:S:1:pos:R:3:initial_magmoms:R:1 pbc="T T T"
Si       1.31793269       1.37357281      -1.36164097       0.00000000
Si      -1.36795016       1.31193145       1.39366309       0.00000000
Si      -1.41682504      -1.33268491      -1.38542382       0.00000000
Si       1.23340388      -1.36961434       1.52327083       0.00000000
Si      -2.24325682      -0.58950253       2.46196281       0.00000000
Si      -0.62918497      -2.36499851       2.61354193       0.00000000
Si       2.62064400      -0.05994720      -2.70201178       0.00000000
Si       2.59462887       2.72756504       0.07704590       0.00000000
Si       2.48516007       0.08298126       2.89253751       0.00000000
Si       2.69543139      -2.71634123       0.23671820       0.00000000
