10
Lattice="16.2900001489832 0.0 0.0 0.0 16.2900001489832 0.0 0.0 0.0 29.2172554554744" Properties=species:S:1:pos:R:3:initial_magmoms:R:1 pbc="T T T"
Si      -2.32878454      -0.04166982       0.33918312       0.00000000
Si       0.76924639       1.86683402      -1.22031711       0.00000000
Si       0.29056473      -2.32864249      -0.43510337       0.00000000
Si       1.69872122      -0.08772165       1.69883732       0.00000000
Si      -0.72384616      -2.73542497       1.88945069       0.00000000
Si       2.63117711      -2.27645096      -0.79164154       0.00000000
Si      -2.64546344      -1.20329344       2.33960095       0.00000000
Si       2.57611691       1.07072542      -2.47890882       0.00000000
H       -1.43952288       0.16777071      -3.52935681       0.00000000
Si       3.70126722      -0.74906308       0.62779117       0.00000000
