10
Lattice="16.2900001489832 0.0 0.0 0.0 16.2900001489832 0.0 0.0 0.0 29.2172554554744" Properties=species:S:1:pos:R:3:initial_magmoms:R:1 pbc="T T T"
Si      -1.59120233      -0.46633383       1.72860970       0.00000000
Si       1.87913297       1.25094169       0.88604249       0.00000000
Si       0.67381957      -2.28136565      -0.55083292       0.00000000
Si      -1.09755831       1.24478407      -1.88360724       0.00000000
Si      -3.09601227      -1.89157853       0.48722695       0.00000000
Si       2.63981081       2.67916583      -0.79777716       0.00000000
Si      -2.03591282       1.64835254       2.83871932       0.00000000
Si       3.04018644      -2.32951889      -0.57198621       0.00000000
Si      -0.66205819      -1.56862927       3.60827261       0.00000000
Si      -3.43088580       0.87403996      -1.92985816       0.00000000
