10
Lattice="16.2900001489832 0.0 0.0 0.0 16.2900001489832 0.0 0.0 0.0 29.2172554554744" Properties=species:S:1:pos:R:3:initial_magmoms:R:1 pbc="T T T"
Si       2.34061238       0.05219153      -0.35653817       0.00000000
Si      -0.29056473       2.32864249       0.43510337       0.00000000
Si      -0.48008259      -1.07591867      -2.19506319       0.00000000
Si      -1.01441089      -0.40678248       2.32455406       0.00000000
Si       1.40815648       2.24092084       2.13394069       0.00000000
Si       2.66142764      -2.15881272       0.34955524       0.00000000
Si      -2.61934927       2.28697267       0.77428649       0.00000000
Si      -2.80699509      -0.80031793      -2.08468039       0.00000000
Si       2.40933989       1.08348375      -2.56603468       0.00000000
Si       0.72272215       0.51479984       3.65128041       0.00000000
