10
Lattice="16.2900001489832 0.0 0.0 0.0 16.2900001489832 0.0 0.0 0.0 29.2172554554744" Properties=species:S:1:pos:R:3:initial_magmoms:R:1 pbc="T T T"
Si       1.25175619       1.45259560       1.36926668       0.00000000
Si       1.46202751      -1.34672689      -1.28655263       0.00000000
Si      -1.86258884      -0.99538417       1.09027110       0.00000000
Si      -1.23340388       1.36961434      -1.52327083       0.00000000
H        2.21227976       0.64249390       2.20149098       0.00000000
Si      -3.47666070       0.78011182       0.93869198       0.00000000
Si      -2.60135403       2.68154579      -0.12960775       0.00000000
Si       2.65390166       2.67869504      -0.09235574       0.00000000
Si       0.07115472      -2.55089999      -2.82089680       0.00000000
H        0.98292232      -1.67277125       3.31507746       0.00000000
