10
Lattice="16.2900001489832 0.0 0.0 0.0 16.2900001489832 0.0 0.0 0.0 29.2172554554744" Properties=species:S:1:pos:R:3:initial_magmoms:R:1 pbc="T T T"
Si      -0.34456608      -1.29376810      -1.93520492       0.00000000
Si       1.48045150       1.65051911      -0.85317308       0.00000000
Si      -1.82713529       0.93856465       1.22694943       0.00000000
Si       1.05896404      -1.68164930       1.38092436       0.00000000
H        1.75233161      -0.90275923       2.46961773       0.00000000
H        0.86408677       0.65101357       3.37935542       0.00000000
Si       1.99213670      -1.07800705      -2.86706006       0.00000000
Si      -0.73920763       2.77488750       2.26237974       0.00000000
Si       3.32500406       0.36725805      -1.47862686       0.00000000
Si      -1.43785315      -3.31400505      -1.12915927       0.00000000
