10
Lattice="16.2900001489832 0.0 0.0 0.0 16.2900001489832 0.0 0.0 0.0 29.2172554554744" Properties=species:S:1:pos:R:3:initial_magmoms:R:1 pbc="T T T"
Si       1.01242351       1.81778483      -0.97950849       0.00000000
Si      -1.33804432       0.72816301       1.81591086       0.00000000
Si       1.31272966      -2.00559224       0.19619387       0.00000000
Si      -1.58105854      -0.67886947      -1.83796989       0.00000000
Si      -0.90559369       1.58643424      -2.35152159       0.00000000
Si      -0.62336944      -2.86041000       1.28897766       0.00000000
Si      -0.74701054      -1.16970346       3.00537455       0.00000000
Si      -2.41785956      -2.30910752      -0.24422704       0.00000000
Si       3.22906899       1.09778311      -1.24445056       0.00000000
Si      -0.09225027      -1.94869127      -3.18213894       0.00000000
