10
Lattice="16.2900001489832 0.0 0.0 0.0 16.2900001489832 0.0 0.0 0.0 29.2172554554744" Properties=species:S:1:pos:R:3:initial_magmoms:R:1 pbc="T T T"
Si      -1.34985783       1.45435492      -1.29321416       0.00000000
Si       1.51607773       1.41810967       1.14309590       0.00000000
Si       1.37301895      -1.28220220      -1.46924813       0.00000000
Si      -1.41019762      -1.36168111       1.40161018       0.00000000
H        0.75831580       2.33308640       2.05321341       0.00000000
Si      -2.45284234       0.32101074       2.72097378       0.00000000
Si      -2.58956007      -2.69783579      -0.15263094       0.00000000
Si       2.76938148       0.06424776       2.56422321       0.00000000
Si       2.66569562      -2.70068654      -0.11537894       0.00000000
Si      -2.65654553       0.09573633      -2.72500576       0.00000000
