10
Lattice="16.2900001489832 0.0 0.0 0.0 16.2900001489832 0.0 0.0 0.0 29.2172554554744" Properties=species:S:1:pos:R:3:initial_magmoms:R:1 pbc="T T T"
Si       0.75776194      -0.91497673      -0.91011751       0.00000000
H        0.63990379       0.11249874       2.30307938       0.00000000
Si      -1.41525892      -1.55530405       2.20403288       0.00000000
Si       2.01106568      -2.26883864       0.51100980       0.00000000
Si       2.06456204       0.45696708      -2.27082353       0.00000000
H       -2.25834788       2.17622999       0.45590605       0.00000000
Si      -0.75831580      -2.33308640      -2.05321341       0.00000000
Si       1.87880717       2.90333415       0.36617986       0.00000000
Si      -2.59042279       2.41590476      -0.99616232       0.00000000
Si       0.27494262      -3.22401909       1.78029503       0.00000000
