10
Lattice="16.2900001489832 0.0 0.0 0.0 16.2900001489832 0.0 0.0 0.0 29.2172554554744" Properties=species:S:1:pos:R:3:initial_magmoms:R:1 pbc="T T T"
Si      -2.17909703      -0.63456067       0.67112036       0.00000000
Si       1.50946399      -1.37010304       1.25304043       0.00000000
Si      -0.00224802       2.05076441       1.25631277       0.00000000
Si       0.65505349      -0.46775106      -2.34675918       0.00000000
H       -2.58370805      -1.97029181       0.09372896       0.00000000
H       -0.69930527      -3.06916635      -1.05599926       0.00000000
Si      -0.98828010      -2.33043113      -2.35301167       0.00000000
Si       3.14245506      -0.69063085      -1.90046560       0.00000000
Si       2.48961701       0.16101036       2.78662496       0.00000000
Si       0.64503514       1.51830946       3.44667197       0.00000000
