10
Lattice="16.2900001489832 0.0 0.0 0.0 16.2900001489832 0.0 0.0 0.0 29.2172554554744" Properties=species:S:1:pos:R:3:initial_magmoms:R:1 pbc="T T T"
Si      -1.35519281       1.41437926      -1.29648649       0.00000000
Si       1.35943309       1.42254055       1.28570533       0.00000000
Si      -1.37944047      -1.31207806       1.42250052       0.00000000
Si       1.33519357      -1.32458878      -1.46907282       0.00000000
Si      -2.66642004       0.02767671      -2.62612581       0.00000000
Si       2.79329520       0.02362050       2.49810456       0.00000000
Si      -2.68612817      -2.67069665      -0.00929109       0.00000000
Si       2.71347419      -2.70813107      -0.14091482       0.00000000
Si      -0.01736514       2.85268772       2.59466759       0.00000000
Si       2.72288981       2.75216382      -0.11426869       0.00000000
