10
Lattice="16.2900001489832 0.0 0.0 0.0 16.2900001489832 0.0 0.0 0.0 29.2172554554744" Properties=species:S:1:pos:R:3:initial_magmoms:R:1 pbc="T T T"
Si       0.37336680      -2.21058560      -0.66638716       0.00000000
Si      -0.75274462      -0.32992137       2.25527995       0.00000000
Si       2.15840873       1.06249897       0.10024440       0.00000000
Si      -1.72077788       1.09123453      -1.28728306       0.00000000
H       -0.39793212      -1.73740997       2.65324819       0.00000000
H        3.20175066      -0.23086188       0.35674269       0.00000000
Si       1.65796364       2.35467407       2.05356402       0.00000000
Si      -2.12995010       2.93015074       0.14658297       0.00000000
Si      -0.55972441      -2.48922605      -2.74531176       0.00000000
Si      -0.03235194       3.62045742       1.02713262       0.00000000
