10
Lattice="16.2900001489832 0.0 0.0 0.0 16.2900001489832 0.0 0.0 0.0 29.2172554554744" Properties=species:S:1:pos:R:3:initial_magmoms:R:1 pbc="T T T"
Si       2.32691249      -0.27560074      -0.11038279       0.00000000
Si      -0.91132777       1.79086723       1.22090145       0.00000000
Si      -0.11650608      -1.80726800       1.56093187       0.00000000
Si      -1.46862496      -0.31903314      -1.87823127       0.00000000
H       -0.31148109      -2.89729707       0.52374852       0.00000000
Si       2.80699509       0.80031793       2.08468039       0.00000000
H        1.07690747       3.29673113      -1.00957304       0.00000000
Si      -2.56958462       0.70259259       2.46175829       0.00000000
Si      -3.67404663       0.29316299      -1.05278537       0.00000000
Si      -1.62329851      -2.65043841      -2.30097574       0.00000000
