10
Lattice="10.86 0.0 0.0 0.0 10.86 0.0 0.0 0.0 10.86" Properties=species:S:1:pos:R:3:initial_magmoms:R:1 pbc="T T T"
Si       1.35750000      -1.35750000      -1.35750000       0.00000000
Si       1.35750000       1.35750000       1.35750000       0.00000000
Si      -1.35750000      -1.35750000       1.35750000       0.00000000
Si      -1.35750000       1.35750000      -1.35750000       0.00000000
Si       2.56764066      -2.65722480      -0.07347876       0.00000000
Si      -0.02304492      -2.55746484      -2.67482886       0.00000000
Si      -2.70732198      -2.65107804       0.11950344       0.00000000
Si      -0.14188590       2.66088462      -2.71654212       0.00000000
Si      -2.67813030       2.73921780      -0.19184190       0.00000000
Si       2.71500000       0.00000000      -2.71500000       0.00000000
