10
Lattice="10.86 0.0 0.0 0.0 10.86 0.0 0.0 0.0 10.86" Properties=species:S:1:pos:R:3:initial_magmoms:R:1 pbc="T T T"
Si       1.38054492       1.19996484       1.31732886       0.00000000
Si      -1.33445508       1.19996484      -1.39767114       0.00000000
Si      -1.43333538      -1.32583224       1.24782486       0.00000000
Si       1.38054492      -1.51503516      -1.39767114       0.00000000
Si       2.59068558      -0.09975996       2.60135010       0.00000000
Si       0.17006760      -2.63955558       2.56987782       0.00000000
Si       0.02304492       2.55746484       2.67482886       0.00000000
Si      -2.69195508       2.55746484      -0.04017114       0.00000000
Si       2.73804492       2.55746484      -0.04017114       0.00000000
Si       0.02304492       2.55746484      -2.75517114       0.00000000
