10
Lattice="10.86 0.0 0.0 0.0 10.86 0.0 0.0 0.0 10.86" Properties=species:S:1:pos:R:3:initial_magmoms:R:1 pbc="T T T"
Si       1.12133844      -1.49437944      -1.20245178       0.00000000
Si       1.12133844       1.22062056       1.51254822       0.00000000
Si      -1.59366156       1.22062056      -1.20245178       0.00000000
Si       2.47883844      -0.13687944      -2.55995178       0.00000000
Si       2.47883844       2.57812056       0.15504822       0.00000000
Si      -0.23616156       2.57812056      -2.55995178       0.00000000
Si       2.47883844      -2.85187944       0.15504822       0.00000000
Si       2.47883844      -0.13687944       2.87004822       0.00000000
Si      -0.23616156      -2.85187944      -2.55995178       0.00000000
Si      -0.38352090       2.63589576       2.79656946       0.00000000
