10
Lattice="10.86 0.0 0.0 0.0 10.86 0.0 0.0 0.0 10.86" Properties=species:S:1:pos:R:3:initial_magmoms:R:1 pbc="T T T"
Si       1.34982198       1.29357804       1.23799656       0.00000000
Si      -1.36517802      -1.42142196       1.23799656       0.00000000
Si       1.25094168      -1.23221904      -1.54650744       0.00000000
Si      -1.36517802       1.29357804      -1.47700344       0.00000000
Si      -0.00767802       2.65107804       2.59549656       0.00000000
Si      -2.72267802      -0.06392196       2.59549656       0.00000000
Si       2.70348840      -0.02267568       2.63739444       0.00000000
Si       2.70732198       2.65107804      -0.11950344       0.00000000
Si      -2.72267802       2.65107804      -0.11950344       0.00000000
Si      -0.15424458      -2.79146526       2.58729726       0.00000000
