10
Lattice="10.86 0.0 0.0 0.0 10.86 0.0 0.0 0.0 10.86" Properties=species:S:1:pos:R:3:initial_magmoms:R:1 pbc="T T T"
Si      -1.60340298       1.31372334      -1.32205296       0.00000000
Si       2.42061798       2.53979562       0.03147228       0.00000000
Si       2.42492940      -0.21726516       2.66866038       0.00000000
Si      -0.17006760       2.63955558      -2.56987782       0.00000000
Si      -0.15085626       2.52326670       2.86184892       0.00000000
Si      -2.85434466       2.54594238       0.22445448       0.00000000
Si      -2.88368838      -0.11473590      -2.68109508       0.00000000
Si       2.80413888      -0.09610014      -2.76509718       0.00000000
Si      -0.28890858      -3.00209496      -2.61159108       0.00000000
Si      -2.82515298      -2.92376178      -0.08689086       0.00000000
