10
Lattice="16.28999089631971 0.0 0.0 0.0 16.28999089631971 0.0 0.0 0.0 34.40785480372833" Properties=species:S:1:pos:R:3:initial_magmoms:R:1 pbc="T T T"
Si       0.17226675       2.04376688      -1.10390782       0.00000000
Si       0.08465913      -1.45617939      -1.82430548       0.00000000
Si       1.61727120      -0.88288542       1.44860590       0.00000000
Si      -1.77062526      -0.10528227       1.58551484       0.00000000
Si      -0.30670812      -1.60782300       2.61004369       0.00000000
Si      -1.38175038       1.50031619      -2.80083535       0.00000000
Si      -1.84684617      -0.81971280      -2.97769183       0.00000000
Si       2.58287724       0.87579180       2.62053809       0.00000000
Si      -2.13622336       2.29575689       2.17543784       0.00000000
Si       2.41008921       2.33728010      -1.91576161       0.00000000
