10
Lattice="16.28999089631971 0.0 0.0 0.0 16.28999089631971 0.0 0.0 0.0 34.40785480372833" Properties=species:S:1:pos:R:3:initial_magmoms:R:1 pbc="T T T"
Si       0.15402195      -2.02801052      -1.24883379       0.00000000
Si       0.44662293       1.67042547      -1.65457144       0.00000000
Si      -2.13477192       0.03479544       1.09224355       0.00000000
Si       2.00800314      -0.03549591       1.44320387       0.00000000
Si       1.08512577      -3.08887575       0.67666525       0.00000000
Si      -1.73276730      -0.95975793       3.15279350       0.00000000
Si       3.18177909       1.81762191       0.69865188       0.00000000
Si       3.14882442      -1.90197316       0.68003722       0.00000000
Si      -2.60403795       2.25118026       1.57047859       0.00000000
Si       1.30204341      -1.42254054      -3.29008091       0.00000000
