10
Lattice="16.28999089631971 0.0 0.0 0.0 16.28999089631971 0.0 0.0 0.0 34.40785480372833" Properties=species:S:1:pos:R:3:initial_magmoms:R:1 pbc="T T T"
Si      -1.35417141       1.35280305       1.36520122       0.00000000
Si       1.36252818      -1.36407573       1.36372168       0.00000000
Si       1.35847197       1.35368271      -1.39140970       0.00000000
Si      -1.36376622      -1.35760860      -1.39575197       0.00000000
Si      -2.71239903       2.70673011      -0.00041289       0.00000000
Si       2.71679733       2.71122615       0.00141072       0.00000000
Si      -2.71407690      -2.71440759       0.00000000       0.00000000
Si       0.00389331       2.71039536       2.72149080       0.00000000
Si      -2.71182888      -0.00459378       2.72090586       0.00000000
Si       2.71735119      -2.71964645       0.00701921       0.00000000
