10
Lattice="16.28999089631971 0.0 0.0 0.0 16.28999089631971 0.0 0.0 0.0 34.40785480372833" Properties=species:S:1:pos:R:3:initial_magmoms:R:1 pbc="T T T"
Si       1.35009891       1.35203742      -1.36592378       0.00000000
Si      -1.36300059      -1.36031274      -1.35818201       0.00000000
Si      -1.48450770       1.21200858       1.37999660       0.00000000
Si       1.34772057      -1.33578000       1.42569026       0.00000000
Si      -0.44026983      -2.26030266       2.66409846       0.00000000
Si      -2.43755415      -0.77030523       2.53830328       0.00000000
Si       2.67310755       2.71311579      -0.00633105       0.00000000
Si       2.70568755      -0.00521280      -2.71866935       0.00000000
Si       2.70757719      -2.71671588       0.02391347       0.00000000
Si      -0.00633681       2.70655092      -2.71849731       0.00000000
