10
Lattice="16.28999089631971 0.0 0.0 0.0 16.28999089631971 0.0 0.0 0.0 34.40785480372833" Properties=species:S:1:pos:R:3:initial_magmoms:R:1 pbc="T T T"
Si       0.34417512       1.46618145       1.81398312       0.00000000
Si       2.21197023      -0.46869588      -1.11963222       0.00000000
Si       0.17045856      -2.45840535       0.72483627       0.00000000
Si      -0.61475202       2.10090501      -1.35047465       0.00000000
Si      -2.62681137      -0.13045032       0.37996615       0.00000000
Si      -0.84193236      -2.78589951      -1.49199423       0.00000000
Si      -1.88617023       0.68641173      -2.77609609       0.00000000
Si       0.94605804      -1.86137685      -2.73040244       0.00000000
Si       2.10162177       2.70488934       0.58699833       0.00000000
Si      -2.83921668      -1.29590208      -1.61778942       0.00000000
