10
Lattice="16.28999089631971 0.0 0.0 0.0 16.28999089631971 0.0 0.0 0.0 34.40785480372833" Properties=species:S:1:pos:R:3:initial_magmoms:R:1 pbc="T T T"
Si      -1.01239092      -0.32749416      -2.21683051       0.00000000
Si      -1.91021427      -1.30904811       0.98860704       0.00000000
Si      -0.17045856       2.45840535      -0.72483627       0.00000000
Si       1.61147196       0.28901718       2.47268746       0.00000000
Si       2.04151167       1.98970947      -1.84446850       0.00000000
Si       0.77559948       0.59702850      -3.45523871       0.00000000
Si      -3.34181205       0.63356697       1.22904926       0.00000000
Si      -2.79726993       2.32795503      -0.34487012       0.00000000
Si      -3.00967524       1.16250327      -2.34262570       0.00000000
Si      -1.44383157      -1.74153132       3.28884223       0.00000000
