10
Lattice="16.28999089631971 0.0 0.0 0.0 16.28999089631971 0.0 0.0 0.0 34.40785480372833" Properties=species:S:1:pos:R:3:initial_magmoms:R:1 pbc="T T T"
Si      -0.36867528      -0.98533323      -2.08501394       0.00000000
Si      -0.27867303      -2.17565982       0.80944524       0.00000000
Si      -1.85370426       1.21487562       0.79361761       0.00000000
Si       1.96485093       0.85657707       0.97852553       0.00000000
Si       1.22313465       3.06783054       1.04651549       0.00000000
Si      -1.13782392      -1.59016464       2.87574130       0.00000000
Si       1.52930520      -3.36043152      -0.02522097       0.00000000
Si      -0.86670945       2.92016169       2.09406321       0.00000000
Si      -1.97594442      -2.76135048      -1.50245423       0.00000000
Si       0.17586684       0.70905483      -3.65893332       0.00000000
