10
Lattice="16.28999089631971 0.0 0.0 0.0 16.28999089631971 0.0 0.0 0.0 34.40785480372833" Properties=species:S:1:pos:R:3:initial_magmoms:R:1 pbc="T T T"
Si       1.18936548      -1.50048819       1.36643990       0.00000000
Si       1.37428956       1.33149573      -1.37779450       0.00000000
Si      -1.34190504      -1.38318390      -1.37659022       0.00000000
Si      -1.32787935       1.49149611       1.53090954       0.00000000
Si      -2.68884369       2.67949323      -0.02160814       0.00000000
Si       2.72512152       2.67936291       0.01104493       0.00000000
Si       0.01762578       2.68710066      -2.73800658       0.00000000
Si      -2.69848737      -0.02694366      -2.73910763       0.00000000
Si       2.69882946      -2.73880512      -0.02597794       0.00000000
Si      -2.71450044      -2.74616820       0.00536763       0.00000000
