10
Lattice="16.28999089631971 0.0 0.0 0.0 16.28999089631971 0.0 0.0 0.0 34.40785480372833" Properties=species:S:1:pos:R:3:initial_magmoms:R:1 pbc="T T T"
Si      -2.27193291       0.78617169       0.26012353       0.00000000
Si      -0.59323293      -0.58098285      -2.28530218       0.00000000
Si       1.60726914       1.77601725      -0.58255972       0.00000000
Si       0.38046924      -1.67666454       1.93183009       0.00000000
Si       1.69727139       0.58569066       2.31189946       0.00000000
Si       1.45544634      -1.76459796      -1.99221591       0.00000000
Si       3.03886692      -0.16659783      -0.82300194       0.00000000
Si      -0.69831972      -3.45767630       0.75164001       0.00000000
Si       1.97594442       2.76135048       1.50245423       0.00000000
Si      -2.21316103       2.96116362      -0.70584313       0.00000000
