10
Lattice="16.28999089631971 0.0 0.0 0.0 16.28999089631971 0.0 0.0 0.0 34.40785480372833" Properties=species:S:1:pos:R:3:initial_magmoms:R:1 pbc="T T T"
Si       1.26658008      -0.50709141      -1.88981807       0.00000000
Si      -2.24538102       0.39234465      -0.61297628       0.00000000
Si       1.05974595       1.91544336       0.98320500       0.00000000
Si       0.02218698      -1.77176556       1.62126462       0.00000000
Si       3.43430667      -0.33184359      -1.02999971       0.00000000
Si      -2.23607943       2.68499925      -1.08756408       0.00000000
Si       2.15899515       0.81834444       2.90925457       0.00000000
Si      -1.98159705      -1.38820122       2.82602192       0.00000000
Si       0.68468499      -2.71770957      -2.47010687       0.00000000
Si      -2.48103216      -0.56534445      -2.75851367       0.00000000
