10
Lattice="16.28999089631971 0.0 0.0 0.0 16.28999089631971 0.0 0.0 0.0 34.40785480372833" Properties=species:S:1:pos:R:3:initial_magmoms:R:1 pbc="T T T"
Si       1.42965927      -1.45031499      -1.20988407       0.00000000
Si       0.33052410       2.11297590      -1.07125475       0.00000000
Si       1.34947989       0.56058777       1.89707813       0.00000000
Si      -2.26699785      -0.77867829       0.44716473       0.00000000
Si       2.08679787       1.32688566      -2.79598384       0.00000000
Si       3.59477946       0.56777166       1.11275065       0.00000000
Si       0.13732470       3.74947974       0.66885466       0.00000000
Si      -1.54210914       2.47078575      -2.46797358       0.00000000
Si      -3.54499070       1.17564930       0.82214174       0.00000000
Si       3.56182479      -1.46667015      -0.14358406       0.00000000
