10
Lattice="16.28999089631971 0.0 0.0 0.0 16.28999089631971 0.0 0.0 0.0 34.40785480372833" Properties=species:S:1:pos:R:3:initial_magmoms:R:1 pbc="T T T"
Si       1.15173558      -1.42498520      -1.59690384       0.00000000
Si      -1.96149519      -0.75113306       1.32298276       0.00000000
Si      -1.52642187       1.30142390      -1.60805199       0.00000000
Si       1.78887006       0.34575476       2.00783708       0.00000000
Si       2.44055151      -2.81919743      -0.11887920       0.00000000
Si       2.69599500       2.80928169      -0.23424881       0.00000000
Si      -2.90126529      -2.61285200      -0.07703923       0.00000000
Si       2.51706564      -0.05816079      -2.98608735       0.00000000
Si      -2.82379005       2.70183285      -0.23996051       0.00000000
Si      -3.71118780       0.99233255       1.04751332       0.00000000
