10
Lattice="16.28999089631971 0.0 0.0 0.0 16.28999089631971 0.0 0.0 0.0 34.40785480372833" Properties=species:S:1:pos:R:3:initial_magmoms:R:1 pbc="T T T"
Si       0.24801525      -2.30712877      -0.18566489       0.00000000
Si       2.06369865       1.18690259       0.00337197       0.00000000
Si      -0.93110382       1.06086524      -1.92549904       0.00000000
Si      -1.46983041       0.23513654       1.93571818       0.00000000
Si       0.92287737       3.05337984       0.76653862       0.00000000
Si      -1.08512577       3.08887575      -0.67666525       0.00000000
Si       1.11286764      -2.27181205      -2.37878837       0.00000000
Si      -3.19173228      -1.20690217       1.14282313       0.00000000
Si      -1.95913314      -3.08890216       0.24064867       0.00000000
Si       2.06234658      -2.81169523       1.29494034       0.00000000
