10
Lattice="16.28999089631971 0.0 0.0 0.0 16.28999089631971 0.0 0.0 0.0 34.40785480372833" Properties=species:S:1:pos:R:3:initial_magmoms:R:1 pbc="T T T"
Si       2.28527523      -0.45768384       0.23459289       0.00000000
Si      -0.48511620       1.62093645       1.76003157       0.00000000
Si      -1.32442587      -2.03608710       0.70487971       0.00000000
Si       0.57010113       0.74741778      -2.60959639       0.00000000
Si      -2.41828308      -0.85882509      -1.60320048       0.00000000
Si      -0.77483385      -1.06883577      -3.34000674       0.00000000
Si       2.52226215      -1.94774643      -1.82024535       0.00000000
Si      -1.31914791       3.44223990       0.33062526       0.00000000
Si       2.60690499      -1.57126824       2.31723272       0.00000000
Si      -1.77016914       0.15669351       3.39531193       0.00000000
