10
Lattice="16.28999089631971 0.0 0.0 0.0 16.28999089631971 0.0 0.0 0.0 34.40785480372833" Properties=species:S:1:pos:R:3:initial_magmoms:R:1 pbc="T T T"
Si      -1.88729424       0.93592566      -1.07190850       0.00000000
Si       1.64344923      -0.21001068      -1.73680626       0.00000000
Si      -0.56185839      -2.16286402       0.89298755       0.00000000
Si       1.09385721      -1.17726201       2.30808019       0.00000000
Si       2.41828308       0.85882509       1.60320048       0.00000000
Si       2.98838421       1.60624287      -1.00639591       0.00000000
Si      -2.74206312      -0.88464474      -2.33017005       0.00000000
Si      -0.81516789      -0.29027151       3.61258592       0.00000000
Si      -3.61312200       1.36112724       0.55603124       0.00000000
Si      -0.27991107      -3.77342279      -1.01978057       0.00000000
