10
Lattice="16.28999089631971 0.0 0.0 0.0 16.28999089631971 0.0 0.0 0.0 34.40785480372833" Properties=species:S:1:pos:R:3:initial_magmoms:R:1 pbc="T T T"
Si       1.35754344      -1.35848826      -1.35849168       0.00000000
Si      -1.35850455       1.35690813      -1.36000563       0.00000000
Si       1.34671059       1.35347094       1.37996220       0.00000000
Si      -1.35661491      -1.35459495       1.38257719       0.00000000
Si       0.17946693      -2.56231926       2.75201058       0.00000000
Si      -2.71409319       2.71415835      -0.00726006       0.00000000
Si       2.71674846       2.71205694       0.00000000       0.00000000
Si      -0.00009774       2.71329498      -2.71739626       0.00000000
Si      -2.71466334      -0.00094482      -2.71753389       0.00000000
Si       2.71564074      -0.00076563      -2.71763711       0.00000000
