10
Lattice="16.28999089631971 0.0 0.0 0.0 16.28999089631971 0.0 0.0 0.0 34.40785480372833" Properties=species:S:1:pos:R:3:initial_magmoms:R:1 pbc="T T T"
Si      -1.96349886      -0.04667085       1.27075160       0.00000000
Si       1.50100947       1.24103736       1.37886114       0.00000000
Si       0.65625894      -2.23313094      -0.54914967       0.00000000
Si      -0.78149646       1.40243868      -1.93269028       0.00000000
Si      -2.70521514       2.16458262       1.33874156       0.00000000
Si      -0.30719682      -3.63403836       1.12806215       0.00000000
Si      -1.46587194      -0.67357521       3.47598666       0.00000000
Si       3.02449914      -2.31570495      -0.56563104       0.00000000
Si      -2.76185547       2.54348802      -1.09128013       0.00000000
Si      -1.12567158      -0.06374277      -3.74667340       0.00000000
