10
Lattice="16.28999089631971 0.0 0.0 0.0 16.28999089631971 0.0 0.0 0.0 34.40785480372833" Properties=species:S:1:pos:R:3:initial_magmoms:R:1 pbc="T T T"
Si       2.36824020      -0.08257401      -0.01648137       0.00000000
Si      -0.96345576      -1.40090742       1.67721182       0.00000000
Si      -0.65625894       2.23313094       0.54914967       0.00000000
Si      -1.61147196      -0.28901718      -2.47268746       0.00000000
Si       3.00444615       2.01453543      -0.90709478       0.00000000
Si       2.96023509      -0.43622991       2.24838253       0.00000000
Si      -3.05530353      -2.03054850       0.81615477       0.00000000
Si      -2.61975780       2.18646009       1.81990127       0.00000000
Si      -0.75303783      -0.35867322       3.85030992       0.00000000
Si       0.84475053       3.47416830       1.92801081       0.00000000
