10
Lattice="16.28999089631971 0.0 0.0 0.0 16.28999089631971 0.0 0.0 0.0 34.40785480372833" Properties=species:S:1:pos:R:3:initial_magmoms:R:1 pbc="T T T"
Si       0.03512124       2.33355879       0.05154300       0.00000000
Si       0.45791190      -0.53048385       2.23393122       0.00000000
Si       1.43602866      -0.75523698      -1.72121949       0.00000000
Si      -2.27724426      -0.67768029      -0.11929210       0.00000000
Si      -1.13003730       0.85165749       3.30033446       0.00000000
Si       0.81614529      -3.04036560      -1.73030317       0.00000000
Si      -0.99605205       2.93474124       2.08143552       0.00000000
Si       3.54441078       0.26424009      -1.15410891       0.00000000
Si      -2.48766219      -1.71991449      -2.29239020       0.00000000
Si      -0.67945590       3.15516123      -2.04159121       0.00000000
