10
Lattice="16.28999089631971 0.0 0.0 0.0 16.28999089631971 0.0 0.0 0.0 34.40785480372833" Properties=species:S:1:pos:R:3:initial_magmoms:R:1 pbc="T T T"
Si       0.60073610      -1.63504359       1.65787459       0.00000000
Si       2.25267405       0.28584063      -0.87096652       0.00000000
Si      -0.75340452       2.20463973       0.72690075       0.00000000
Si      -1.79287318      -0.61540362      -1.54570493       0.00000000
Si       2.90922621      -1.88703360      -1.62147106       0.00000000
Si      -0.75134106      -1.35413883      -3.51190848       0.00000000
Si      -2.42163460       1.82436597       2.40696842       0.00000000
Si      -2.28515698       3.02568831      -0.90623459       0.00000000
Si      -3.46033387      -1.79779698      -0.32019968       0.00000000
Si       1.13037450      -0.55069974       3.72816197       0.00000000
