10
Lattice="16.28999089631971 0.0 0.0 0.0 16.28999089631971 0.0 0.0 0.0 34.40785480372833" Properties=species:S:1:pos:R:3:initial_magmoms:R:1 pbc="T T T"
Si       0.48511620      -1.62093645      -1.76003157       0.00000000
Si      -0.83403171       1.82130345      -1.42940631       0.00000000
Si       1.44316368       1.19985624       1.66960910       0.00000000
Si      -1.28505294      -1.46424294       1.63528036       0.00000000
Si       1.41483537       2.89813761      -1.68216655       0.00000000
Si       2.96864073       2.17310229       0.11757171       0.00000000
Si       2.77039143      -2.07862029      -1.52543869       0.00000000
Si      -2.47912623       2.93944905       0.04620977       0.00000000
Si      -0.83930967      -3.65702355      -1.05515187       0.00000000
Si      -2.74833477      -2.77003305       0.24935386       0.00000000
