10
Lattice="16.28999089631971 0.0 0.0 0.0 16.28999089631971 0.0 0.0 0.0 34.40785480372833" Properties=species:S:1:pos:R:3:initial_magmoms:R:1 pbc="T T T"
Si      -1.35741312      -1.35552348      -1.35721859       0.00000000
Si       1.35690813      -1.35728280       1.35718418       0.00000000
Si       1.35689184       1.35744570      -1.35783793       0.00000000
Si      -1.35808101       1.35798327       1.35711537       0.00000000
Si      -0.00149868      -2.71366965       2.71457481       0.00000000
Si      -2.71352304      -0.00190593       2.71474685       0.00000000
Si       2.71443528      -2.71435383      -0.00044730       0.00000000
Si      -2.71494027      -2.71425609      -0.00037849       0.00000000
Si       2.71467963      -0.00027693       2.71495330       0.00000000
Si      -2.71598283      -0.00327429      -2.71392106       0.00000000
