10
Lattice="16.28999089631971 0.0 0.0 0.0 16.28999089631971 0.0 0.0 0.0 34.40785480372833" Properties=species:S:1:pos:R:3:initial_magmoms:R:1 pbc="T T T"
Si       0.63601047       1.59086511       1.57987194       0.00000000
Si       1.44904437      -1.94246847      -0.07094904       0.00000000
Si      -1.75744665      -1.23870789       1.22698479       0.00000000
Si       0.53965512       1.48198275      -2.14254391       0.00000000
Si      -2.71637379      -0.60398433      -1.93747298       0.00000000
Si       2.51662581       0.00939933      -2.29503961       0.00000000
Si      -2.10162177      -2.70488934      -0.58699833       0.00000000
Si       0.11034846      -3.17358522      -1.70663055       0.00000000
Si      -1.33964073       0.72094653      -3.35700423       0.00000000
Si       2.67405237       0.93318894       2.48235607       0.00000000
