10
Lattice="16.28999089631971 0.0 0.0 0.0 16.28999089631971 0.0 0.0 0.0 34.40785480372833" Properties=species:S:1:pos:R:3:initial_magmoms:R:1 pbc="T T T"
Si      -2.14373142      -0.14771772       1.05735397       0.00000000
Si       0.01596420      -1.60735059      -1.77775163       0.00000000
Si       0.00526167       2.18558043      -0.99882618       0.00000000
Si       1.76117706      -0.66240027       1.55241446       0.00000000
Si       1.84446783       1.89798048      -2.41818539       0.00000000
Si      -1.42915428      -0.96932016       3.15048817       0.00000000
Si       0.67108284      -0.06910218       3.57081476       0.00000000
Si      -1.21974633      -0.69007698      -3.55213128       0.00000000
Si       3.72208581       0.52786116       0.84777561       0.00000000
Si      -0.62024175      -3.70446003      -0.88713822       0.00000000
