10
Lattice="16.28999089631971 0.0 0.0 0.0 16.28999089631971 0.0 0.0 0.0 34.40785480372833" Properties=species:S:1:pos:R:3:initial_magmoms:R:1 pbc="T T T"
Si       1.37745796       1.32957351      -1.34438789       0.00000000
Si       1.34925997      -1.35544203       1.35993681       0.00000000
Si      -1.37218719      -1.35733167      -1.33775062       0.00000000
Si      -1.36316801       1.35816246       1.36096905       0.00000000
Si      -0.06946708       2.58815520      -2.60935898       0.00000000
Si       2.70703147      -2.70723999      -0.00443862       0.00000000
Si       2.70870934       2.71389771      -0.00485151       0.00000000
Si       2.70927949       0.00257382       2.71646725       0.00000000
Si      -0.00544738      -2.71290728       2.71725863       0.00000000
Si      -2.71888149      -2.71223939       0.00443862       0.00000000
