10
Lattice="16.28999089631971 0.0 0.0 0.0 16.28999089631971 0.0 0.0 0.0 34.40785480372833" Properties=species:S:1:pos:R:3:initial_magmoms:R:1 pbc="T T T"
Si      -1.35083196      -1.34786718      -1.38883943       0.00000000
Si       1.36533006       1.36682441      -1.38918351       0.00000000
Si       1.28881593      -1.39421223       1.47802464       0.00000000
Si      -1.15173558       1.42498520       1.59690384       0.00000000
Si       2.45959452       0.30069711       2.85234394       0.00000000
Si       2.71437012      -2.67700086      -0.02707900       0.00000000
Si      -2.72512152      -2.67936291      -0.01104493       0.00000000
Si      -2.67815745       2.72640910      -0.01114815       0.00000000
Si       2.72961756       2.71722643      -0.01149223       0.00000000
Si       0.00822645      -2.70728397      -2.74925795       0.00000000
