10
Lattice="16.28999089631971 0.0 0.0 0.0 16.28999089631971 0.0 0.0 0.0 34.40785480372833" Properties=species:S:1:pos:R:3:initial_magmoms:R:1 pbc="T T T"
Si       0.94423356      -2.05527672      -0.55307217       0.00000000
Si      -0.86485239      -0.03531672       2.19312348       0.00000000
Si      -1.51236360       0.13506039      -1.86359927       0.00000000
Si       2.07655146       1.36026387      -0.00595256       0.00000000
Si       1.70683362       1.29296988      -2.57821641       0.00000000
Si       2.04898878      -1.18838808      -2.49185265       0.00000000
Si      -1.11286764       2.27181205       2.37878837       0.00000000
Si      -0.55148166       1.98770580      -2.93953349       0.00000000
Si       2.70816363       0.52962048       2.29954704       0.00000000
Si      -0.95500125      -3.27991005      -1.30842823       0.00000000
