10
Lattice="16.28999089631971 0.0 0.0 0.0 16.28999089631971 0.0 0.0 0.0 34.40785480372833" Properties=species:S:1:pos:R:3:initial_magmoms:R:1 pbc="T T T"
Si      -2.31247953      -0.02951748      -0.12104690       0.00000000
Si       1.26876294       1.33890768      -1.54749413       0.00000000
Si       0.48966111      -1.60813251       1.75473276       0.00000000
Si       0.93032190      -2.16564147      -0.62058042       0.00000000
Si       2.53979019      -0.63384390      -1.51817863       0.00000000
Si       2.23863696       2.53837296       0.23521223       0.00000000
Si      -2.47990815      -2.44369548      -0.16440082       0.00000000
Si      -0.96036066      -2.59349832      -2.13036352       0.00000000
Si      -2.73406473       1.10415249       1.95801448       0.00000000
Si       1.95543531      -0.44066079       3.21010467       0.00000000
