10
Lattice="16.28999089631971 0.0 0.0 0.0 16.28999089631971 0.0 0.0 0.0 34.40785480372833" Properties=species:S:1:pos:R:3:initial_magmoms:R:1 pbc="T T T"
Si       1.01154384       1.60863750       1.33245318       0.00000000
Si      -1.65385854      -1.05176874       1.30739393       0.00000000
Si      -0.32162976       1.11358440      -2.08263984       0.00000000
Si       1.83800070      -1.63132295      -0.26848468       0.00000000
Si       0.76820382      -1.98593996      -2.59542039       0.00000000
Si      -0.22480200      -2.35467047       2.63130225       0.00000000
Si       2.46663180       0.37975248       2.65753482       0.00000000
Si      -2.88810297      -2.21056245      -0.30819137       0.00000000
Si       0.95405643       3.24568476      -1.41030998       0.00000000
Si       2.72890799       2.63870307       0.07214058       0.00000000
