10
Lattice="16.28999089631971 0.0 0.0 0.0 16.28999089631971 0.0 0.0 0.0 34.40785480372833" Properties=species:S:1:pos:R:3:initial_magmoms:R:1 pbc="T T T"
Si      -0.85142943       1.23356025      -1.77328174       0.00000000
Si       1.12060539       1.77950331       1.07964511       0.00000000
Si      -1.74385916      -1.16175393       1.13560608       0.00000000
Si       1.82645109      -1.60166538      -0.43674228       0.00000000
Si       2.41812018       0.33923925       2.38065500       0.00000000
Si      -0.29693412      -2.42033562       2.40057716       0.00000000
Si       1.42443018      -1.18786680      -2.94425051       0.00000000
Si      -0.86501529      -0.37436049      -3.48431650       0.00000000
Si       0.93858093       2.76413607      -2.49588150       0.00000000
Si      -2.67630691       2.69537598      -0.68155431       0.00000000
