10
Lattice="16.28999089631971 0.0 0.0 0.0 16.28999089631971 0.0 0.0 0.0 34.40785480372833" Properties=species:S:1:pos:R:3:initial_magmoms:R:1 pbc="T T T"
Si      -1.16377389      -0.08521299      -2.06399073       0.00000000
Si      -0.11938941      -1.30281881       2.01502833       0.00000000
Si       2.14295669       1.15219170      -0.17936825       0.00000000
Si      -1.46134332       1.96613784       0.77197506       0.00000000
Si       0.67492306       1.09752246      -3.23110582       0.00000000
Si       0.46425671       2.51934624       2.36605746       0.00000000
Si       2.73618962       1.73317455       2.10593393       0.00000000
Si       2.03786990      -1.72450175       2.85757394       0.00000000
Si      -3.09552354       1.55908332      -1.85313928       0.00000000
Si      -0.95623929      -3.46720337       1.76130466       0.00000000
