10
Lattice="16.28999089631971 0.0 0.0 0.0 16.28999089631971 0.0 0.0 0.0 34.40785480372833" Properties=species:S:1:pos:R:3:initial_magmoms:R:1 pbc="T T T"
Si       1.05187788       1.30639447       1.57584622       0.00000000
Si      -2.21651514      -0.03115137      -0.67666525       0.00000000
Si       1.26402255      -0.70199311      -1.88334939       0.00000000
Si      -0.32894397      -1.76760088       1.59834897       0.00000000
Si       0.73182825      -3.24314908       0.15514510       0.00000000
Si       0.42717267      -2.86637767      -2.13707306       0.00000000
Si      -3.26948445       1.04410918       1.10793354       0.00000000
Si      -0.42016797       1.10806372       3.42785004       0.00000000
Si      -2.23570476       1.78608610      -2.27023153       0.00000000
Si      -2.90466990      -2.33134891       0.09317652       0.00000000
