10
Lattice="16.28999089631971 0.0 0.0 0.0 16.28999089631971 0.0 0.0 0.0 34.40785480372833" Properties=species:S:1:pos:R:3:initial_magmoms:R:1 pbc="T T T"
Si      -0.93765240       0.57450758       2.09836420       0.00000000
Si       2.04393888       0.73072216      -0.95130890       0.00000000
Si      -0.23306103      -2.09216121      -1.12021715       0.00000000
Si      -1.99039365       0.83693296      -1.03760385       0.00000000
Si      -0.86408676       1.09012843      -3.04709251       0.00000000
Si      -2.12222862      -1.57099524       2.13511181       0.00000000
Si       1.25011089       2.11060082      -2.66330708       0.00000000
Si      -1.99174572      -3.16166487       0.25396452       0.00000000
Si      -0.86467320      -1.26151782      -3.42571675       0.00000000
Si       2.63803518      -0.97859310      -2.48813659       0.00000000
