10
Lattice="16.28999089631971 0.0 0.0 0.0 16.28999089631971 0.0 0.0 0.0 34.40785480372833" Properties=species:S:1:pos:R:3:initial_magmoms:R:1 pbc="T T T"
Si      -1.32035337       0.72801639       1.75256506       0.00000000
Si      -0.36813771      -2.26393533      -0.45380545       0.00000000
Si       2.11452086      -0.48607731       1.12888794       0.00000000
Si      -0.48918870       0.97671582      -2.19752769       0.00000000
Si       1.10390814      -2.06560458      -2.30580927       0.00000000
Si       1.52187696       0.13207932      -3.06302335       0.00000000
Si      -1.41659469       3.04896672       1.57749780       0.00000000
Si      -3.57568758       0.18199188       1.19051244       0.00000000
Si      -2.59757082      -0.04276125      -2.76463827       0.00000000
Si       0.42569028      -3.64381399       1.25819273       0.00000000
