10
Lattice="16.28999089631971 0.0 0.0 0.0 16.28999089631971 0.0 0.0 0.0 34.40785480372833" Properties=species:S:1:pos:R:3:initial_magmoms:R:1 pbc="T T T"
Si      -1.35664423      -1.35853713       1.35601432       0.00000000
Si       1.35834165       1.35690813       1.35597991       0.00000000
Si      -1.35509505       1.35643572      -1.36086583       0.00000000
Si       1.35700587      -1.36163223      -1.36568293       0.00000000
Si      -0.01018125       2.71081890      -2.71323291       0.00000000
Si      -2.71229219       2.71508688      -0.00075697       0.00000000
Si       0.00078192       2.71458189       2.71398988       0.00000000
Si       2.71559187      -0.00053757       2.71364580       0.00000000
Si       0.00065160      -2.71591767       2.71340495       0.00000000
Si      -2.71560673      -0.00057015       2.71378343       0.00000000
