10
Lattice="16.28999089631971 0.0 0.0 0.0 16.28999089631971 0.0 0.0 0.0 34.40785480372833" Properties=species:S:1:pos:R:3:initial_magmoms:R:1 pbc="T T T"
Si      -0.89704143       0.65427156       2.00264149       0.00000000
Si      -1.74513141      -1.00809036      -1.27680739       0.00000000
Si       1.04116445       1.75777245      -1.24845530       0.00000000
Si       1.77478803      -1.72965591       0.48515102       0.00000000
Si       1.34604663       1.61165115       2.72190369       0.00000000
Si       2.31015562       0.30426462      -2.55340833       0.00000000
Si      -0.41660046      -2.42273025      -2.54315479       0.00000000
Si       0.88816338      -3.57664869      -0.86821389       0.00000000
Si      -1.54308654      -1.24229169       3.25694613       0.00000000
Si       3.61081601      -0.97484247      -1.02356544       0.00000000
