10
Lattice="16.28999089631971 0.0 0.0 0.0 16.28999089631971 0.0 0.0 0.0 34.40785480372833" Properties=species:S:1:pos:R:3:initial_magmoms:R:1 pbc="T T T"
Si       1.47037337      -1.26824166       1.29456185       0.00000000
Si       1.35999054       1.35408040      -1.36207010       0.00000000
Si      -1.35418770      -1.36298430      -1.36571734       0.00000000
Si      -1.29039606       1.36226754       1.47867839       0.00000000
Si      -2.70140328       2.70412927       0.01307499       0.00000000
Si      -2.71665072      -2.69009802      -0.00251177       0.00000000
Si       2.77380160       0.14445972       2.63020671       0.00000000
Si      -2.70702333      -0.00490329      -2.72493158       0.00000000
Si       0.00838935       2.71245183      -2.72444987       0.00000000
Si       0.00695583      -2.72013678      -2.72548211       0.00000000
