10
Lattice="16.28999089631971 0.0 0.0 0.0 16.28999089631971 0.0 0.0 0.0 34.40785480372833" Properties=species:S:1:pos:R:3:initial_magmoms:R:1 pbc="T T T"
Si      -1.07471646      -1.88801100       0.60182812       0.00000000
Si      -1.06077222       1.47554820       1.44320387       0.00000000
Si      -0.30465558       0.37677141      -2.29221816       0.00000000
Si       2.29452536       0.36176832       0.36203965       0.00000000
Si       0.53219430       2.54115596      -2.03849450       0.00000000
Si      -0.73182825       3.24314908      -0.15514510       0.00000000
Si       0.00410508      -3.26085075      -0.94188114       0.00000000
Si       2.68945361       2.11947302      -1.19594889       0.00000000
Si      -3.29434299      -1.56955779       0.02439518       0.00000000
Si       0.23592807       1.26201888       3.44787543       0.00000000
