10
Lattice="16.28999089631971 0.0 0.0 0.0 16.28999089631971 0.0 0.0 0.0 34.40785480372833" Properties=species:S:1:pos:R:3:initial_magmoms:R:1 pbc="T T T"
Si       1.11602138       1.43716896      -1.49488450       0.00000000
Si       1.83190172      -1.36787130       0.58723919       0.00000000
Si       0.10528390       1.15833303       2.12196800       0.00000000
Si      -1.65597365      -1.36897902      -1.17988041       0.00000000
Si       0.71880602      -2.99859804       1.75741657       0.00000000
Si       2.27707484       2.01057696       1.90399412       0.00000000
Si       2.69105261      -1.95336648      -1.47905687       0.00000000
Si      -0.53708130       2.10092130      -3.00852128       0.00000000
Si      -3.66703931      -0.52434252      -0.31438475       0.00000000
Si       2.96972564       0.22229334      -2.28850211       0.00000000
