10
Lattice="16.28999089631971 0.0 0.0 0.0 16.28999089631971 0.0 0.0 0.0 34.40785480372833" Properties=species:S:1:pos:R:3:initial_magmoms:R:1 pbc="T T T"
Si      -1.11309570      -1.63072674       1.17017739       0.00000000
Si       0.85915089      -0.58549518      -2.06629606       0.00000000
Si      -1.83190172       1.36787130      -0.58723919       0.00000000
Si       1.53270981       1.32770016       1.20957440       0.00000000
Si      -1.72661783       2.52620433       1.53472881       0.00000000
Si       1.13782392       1.59016464      -2.87574130       0.00000000
Si      -0.71588034       2.80504026      -2.08212368       0.00000000
Si      -1.79966381      -3.07722987      -0.50644950       0.00000000
Si       0.44517312       3.37844826       1.31675493       0.00000000
Si       0.43999290      -2.92721526       2.30598131       0.00000000
