10
Lattice="16.28999089631971 0.0 0.0 0.0 16.28999089631971 0.0 0.0 0.0 34.40785480372833" Properties=species:S:1:pos:R:3:initial_magmoms:R:1 pbc="T T T"
Si      -1.53175247       0.82104858      -1.63313533       0.00000000
Si      -1.66823009      -0.38027376       1.68006767       0.00000000
Si       0.75340452      -2.20463973      -0.72690075       0.00000000
Si       2.02590927       1.48667427      -0.14361847       0.00000000
Si       0.10662147      -0.98725545       3.16251823       0.00000000
Si      -0.13062891       1.77810237      -3.20357952       0.00000000
Si      -1.03946867      -2.82004335      -2.27260567       0.00000000
Si      -2.50517771      -0.99357597      -2.82240909       0.00000000
Si       3.00607857      -1.91879910      -1.59786726       0.00000000
Si      -2.94391628      -2.51237412       1.00773781       0.00000000
