10
Lattice="16.28999089631971 0.0 0.0 0.0 16.28999089631971 0.0 0.0 0.0 34.40785480372833" Properties=species:S:1:pos:R:3:initial_magmoms:R:1 pbc="T T T"
Si      -0.73713227       1.55432664      -1.61558732       0.00000000
Si      -2.11344572      -0.79895934       0.81161293       0.00000000
Si       1.45496741       0.86933214       1.74055672       0.00000000
Si       0.38005384      -2.02922901      -1.35928306       0.00000000
Si       0.17697456       2.82365973       2.11553373       0.00000000
Si       1.44419972       2.13113925      -2.56125333       0.00000000
Si      -0.26064000      -3.61097172       0.58834024       0.00000000
Si      -2.11755080       2.46189141       1.75349408       0.00000000
Si      -2.42220638       2.83866282      -0.53872408       0.00000000
Si      -2.98022033       0.59694705      -2.33484952       0.00000000
