10
Lattice="16.28999089631971 0.0 0.0 0.0 16.28999089631971 0.0 0.0 0.0 34.40785480372833" Properties=species:S:1:pos:R:3:initial_magmoms:R:1 pbc="T T T"
Si       1.08753669      -2.05074810      -0.10718053       0.00000000
Si      -2.17179095      -0.85224393       0.21797388       0.00000000
Si       0.63084654       0.94949523       2.05807258       0.00000000
Si      -0.17405865       1.13187807      -2.09843301       0.00000000
Si      -3.28059097       1.15764885       0.57825873       0.00000000
Si      -2.27707484      -2.01057696      -1.90399412       0.00000000
Si      -1.16105346      -0.57340800      -3.39887861       0.00000000
Si      -0.44517312      -3.37844826      -1.31675493       0.00000000
Si       3.15512865      -1.55861091      -1.00873564       0.00000000
Si       3.67780959       0.48474153       0.17252108       0.00000000
