10
Lattice="16.290000149 0.0 0.0 0.0 16.290000149 0.0 0.0 0.0 29.1751946751" Properties=species:S:1:pos:R:3:initial_magmoms:R:1 pbc="T T T"
Si       1.32633181       1.38232054      -1.37556083       0.00000000
Si       1.34930071      -1.36205578       1.37586717       0.00000000
Si      -1.36326124       1.34825815       1.39009883       0.00000000
Si      -1.38859219      -1.37839465      -1.34233028       0.00000000
Si       2.52561791      -0.09117513      -2.80415341       0.00000000
Si      -2.64696212      -2.74721079       0.08307053       0.00000000
Si      -2.84112264       0.03850956      -2.55870250       0.00000000
Si       2.72108162       0.04434138       2.68801863       0.00000000
Si      -0.07395660       2.80662042      -2.59858499       0.00000000
Si       2.63464688       2.82862821      -0.00518735       0.00000000
