10
Lattice="16.290000149 0.0 0.0 0.0 16.290000149 0.0 0.0 0.0 29.1751946751" Properties=species:S:1:pos:R:3:initial_magmoms:R:1 pbc="T T T"
Si      -1.36523233      -1.35874891      -1.33050558       0.00000000
Si      -1.43679430       1.33543792       1.28122867       0.00000000
Si       1.35553978       1.35047359      -1.36105201       0.00000000
Si       1.36135531      -1.32644584       1.38054104       0.00000000
Si      -0.08728182       2.67871133       2.59434584       0.00000000
Si      -0.09363492      -2.62518239       2.68464306       0.00000000
Si       0.00247608      -2.71573850      -2.66597094       0.00000000
Si      -2.70883154       0.02391372      -2.67311886       0.00000000
Si       2.73294075      -0.01462842      -2.67527783       0.00000000
Si       2.73215883       2.69138495      -0.02862087       0.00000000
