10
Lattice="16.290000149 0.0 0.0 0.0 16.290000149 0.0 0.0 0.0 29.1751946751" Properties=species:S:1:pos:R:3:initial_magmoms:R:1 pbc="T T T"
Si      -0.92186740       0.89111188      -0.80085909       0.00000000
Si       0.88927111      -1.57850101       1.50225995       0.00000000
H       -2.03641292      -0.33603012       1.40183893       0.00000000
Si       1.91062154       0.57511846       1.89431622       0.00000000
Si       1.86070898      -1.98038183      -0.65270746       0.00000000
Si      -1.42325731      -1.64463842       1.84789848       0.00000000
Si      -2.21356667      -0.57552571      -2.10294803       0.00000000
Si       0.41655159       2.20172384      -2.19531670       0.00000000
Si      -2.04066461       2.34862706       0.65250323       0.00000000
Si       3.02928843       2.01666944       0.34207916       0.00000000
