10
Lattice="16.290000149 0.0 0.0 0.0 16.290000149 0.0 0.0 0.0 29.1751946751" Properties=species:S:1:pos:R:3:initial_magmoms:R:1 pbc="T T T"
Si       1.34453426      -1.42027136       1.22658353       0.00000000
Si      -1.29095971      -1.33221169      -1.40160553       0.00000000
Si       1.38762131       1.33443283      -1.35095739       0.00000000
Si      -1.10486112       1.51658761       1.42051105       0.00000000
H        1.56477506       1.57392841       2.15382957       0.00000000
H       -1.52532394       0.68216493       2.89254550       0.00000000
Si       2.17793067       0.26532012       2.59988912       0.00000000
Si      -2.58288704      -2.66788989      -0.02039346       0.00000000
Si      -2.60232101       2.73358094       0.08250745       0.00000000
Si       0.01480761       2.66511407      -2.70941280       0.00000000
