10
Lattice="16.290000149 0.0 0.0 0.0 16.290000149 0.0 0.0 0.0 29.1751946751" Properties=species:S:1:pos:R:3:initial_magmoms:R:1 pbc="T T T"
Si       1.36451557       1.35544204       1.34742719       0.00000000
Si       1.36933741      -1.36337527      -1.33695330       0.00000000
Si      -1.34905636      -1.34718301       1.37753599       0.00000000
Si      -1.34830702       1.36060597      -1.36519488       0.00000000
Si      -0.01026270       2.71982729       2.67985833       0.00000000
Si       2.72113049       0.01185912      -2.68341771       0.00000000
Si       2.71531496      -0.02062314       2.68960285       0.00000000
Si      -2.69679323      -2.70959717       0.02754138       0.00000000
Si       0.02274084      -2.72077211      -2.69905561       0.00000000
Si      -2.70808220       0.00579924      -2.71869052       0.00000000
