10
Lattice="16.290000149 0.0 0.0 0.0 16.290000149 0.0 0.0 0.0 29.1751946751" Properties=species:S:1:pos:R:3:initial_magmoms:R:1 pbc="T T T"
Si      -1.36847404      -1.34895862      -1.33791608       0.00000000
Si      -1.36544410       1.34749252       1.34993626       0.00000000
Si       1.32514264      -1.38368890       1.35979747       0.00000000
Si       1.38526968       1.33133284      -1.36784983       0.00000000
Si       0.07455933      -2.68024097      -2.62060351       0.00000000
Si       2.69512025      -0.01418859       2.68458471       0.00000000
Si      -0.00679293       2.71355564       2.68047101       0.00000000
Si      -2.69470811       2.71409321      -0.02593675       0.00000000
Si       0.05530455       2.73996173      -2.67877885       0.00000000
Si      -2.72214047      -0.03007134       2.70515323       0.00000000
