10
Lattice="16.290000149 0.0 0.0 0.0 16.290000149 0.0 0.0 0.0 29.1751946751" Properties=species:S:1:pos:R:3:initial_magmoms:R:1 pbc="T T T"
Si       1.39382128       1.43498611      -1.17611045       0.00000000
Si       1.70191406      -1.59707161       0.01549203       0.00000000
Si      -0.95679316       1.27079920       1.75412940       0.00000000
Si      -1.59446521      -0.81306649      -1.56116467       0.00000000
Si      -2.07267446       1.21671640      -2.61902805       0.00000000
Si      -0.17490573       2.71500545      -2.29891781       0.00000000
Si       0.62716501      -3.35632647      -1.04584320       0.00000000
Si      -2.40932360       2.68770341       0.53775719       0.00000000
Si      -0.29981745      -2.31541175      -2.88201326       0.00000000
Si       2.35514306      -2.02090484       2.14704926       0.00000000
