10
Lattice="16.290000149 0.0 0.0 0.0 16.290000149 0.0 0.0 0.0 29.1751946751" Properties=species:S:1:pos:R:3:initial_magmoms:R:1 pbc="T T T"
Si       0.81349003      -0.98302006      -1.94353477       0.00000000
Si      -1.33022512      -1.33340167       1.39647069       0.00000000
Si       1.59438376       1.12694221       1.34030844       0.00000000
Si      -1.50877981       1.30551319      -1.29126494       0.00000000
H        1.26403885       0.30089259      -2.60700787       0.00000000
H        0.69568075       1.87220972       2.31788169       0.00000000
Si      -2.53671140       2.79661836       0.17709343       0.00000000
Si      -1.06264558      -1.69200974      -3.21989119       0.00000000
Si      -2.52951122       0.14009400       2.82506328       0.00000000
Si      -2.89382079      -2.45643428      -0.07194603       0.00000000
