10
Lattice="16.290000149 0.0 0.0 0.0 16.290000149 0.0 0.0 0.0 29.1751946751" Properties=species:S:1:pos:R:3:initial_magmoms:R:1 pbc="T T T"
Si       1.16942653      -0.90776026      -0.30651460       0.00000000
Si      -1.88639831       1.62983080      -0.25143183       0.00000000
H       -1.14209191      -1.84292030       1.93221479       0.00000000
Si      -1.53008713       1.39642768       2.10840379       0.00000000
Si      -0.01687481      -2.48448566      -1.66351125       0.00000000
Si       2.42561360      -0.81542854       1.73875408       0.00000000
Si       2.64850967       0.25751232      -1.67952843       0.00000000
Si      -0.24905781       2.68512959      -1.68545100       0.00000000
Si      -1.09320562      -0.75179980       2.98424314       0.00000000
H       -0.43733763      -3.31890834      -0.19147680       0.00000000
