10
Lattice="16.290000149 0.0 0.0 0.0 16.290000149 0.0 0.0 0.0 29.1751946751" Properties=species:S:1:pos:R:3:initial_magmoms:R:1 pbc="T T T"
Si      -1.34674155      -1.34759026       1.36837498       0.00000000
Si       1.35171163      -1.36932112      -1.35854294       0.00000000
Si      -1.36548320       1.34796493      -1.37205106       0.00000000
Si       1.33051834       1.34565175       1.41467601       0.00000000
Si      -2.64705058       2.69355152       0.08376198       0.00000000
Si       0.04667085       2.73826757      -2.62843997       0.00000000
Si       2.70485678       0.02831202      -2.67882261       0.00000000
Si      -2.71090037      -2.67752216      -0.01076565       0.00000000
Si       2.71792136       2.70462872       0.11022389       0.00000000
Si       0.00436572      -2.70640433       2.72823080       0.00000000
