10
Lattice="16.290000149 0.0 0.0 0.0 16.290000149 0.0 0.0 0.0 29.1751946751" Properties=species:S:1:pos:R:3:initial_magmoms:R:1 pbc="T T T"
Si       1.35865117       1.36606312       1.33053475       0.00000000
Si       1.36544410      -1.34749252      -1.34993626       0.00000000
Si      -1.32926401       1.36660069      -1.37587301       0.00000000
Si      -1.35669637      -1.37756386       1.35521697       0.00000000
Si       2.69477327      -0.00964368       2.68333018       0.00000000
Si      -0.00302994      -2.69645114      -2.68785234       0.00000000
Si      -2.70741431       0.00239463      -2.68087946       0.00000000
Si      -2.71513577       2.68190417      -0.01893470       0.00000000
Si       0.01060479       2.71583624       2.69435840       0.00000000
Si       2.69731451       2.72264546      -0.05003546       0.00000000
