10
Lattice="16.290000149 0.0 0.0 0.0 16.290000149 0.0 0.0 0.0 29.1751946751" Properties=species:S:1:pos:R:3:initial_magmoms:R:1 pbc="T T T"
Si      -1.38152233       1.33762078       1.34378029       0.00000000
Si       1.34314309      -1.36177885       1.36945446       0.00000000
Si       1.34768800       1.36778986      -1.35956407       0.00000000
Si      -1.36388026      -1.34421823      -1.36913354       0.00000000
Si      -2.67822263       2.64044612      -0.11708006       0.00000000
Si       0.00586440       2.69588099       2.67472350       0.00000000
Si       2.66330914      -2.70982523      -0.02602427       0.00000000
Si      -2.73116513      -0.05427828       2.68843584       0.00000000
Si       2.73288047       0.00320913       2.69348315       0.00000000
Si      -0.01583388      -2.69399135      -2.73295719       0.00000000
