10
Lattice="16.290000149 0.0 0.0 0.0 16.290000149 0.0 0.0 0.0 29.1751946751" Properties=species:S:1:pos:R:3:initial_magmoms:R:1 pbc="T T T"
Si      -1.43373178       1.34649720      -1.26194387       0.00000000
Si      -1.38000736      -1.34366437       1.33476516       0.00000000
Si       1.34682463       1.38793571       1.33911226       0.00000000
Si       1.35397594      -1.32885676      -1.40128460       0.00000000
Si      -0.10036269       2.68679117      -2.59076020       0.00000000
Si      -0.01081656      -2.69197139       2.67571545       0.00000000
Si       2.70047477      -2.67357998      -0.03626477       0.00000000
Si       2.70682787       0.03482802       2.69149923       0.00000000
Si      -2.73077417       0.03259629       2.68347606       0.00000000
Si      -0.06830397      -2.78904351      -2.62563040       0.00000000
