10
Lattice="16.290000149 0.0 0.0 0.0 16.290000149 0.0 0.0 0.0 29.1751946751" Properties=species:S:1:pos:R:3:initial_magmoms:R:1 pbc="T T T"
Si      -1.88678927      -1.34047153      -0.38534597       0.00000000
Si       0.52097049       1.25718565      -1.92944315       0.00000000
Si       1.92622736      -1.49895694       0.32600363       0.00000000
H       -0.89511922      -0.98844463       2.07103037       0.00000000
Si      -1.61430643       1.53113621       1.07840272       0.00000000
H       -2.79702561      -1.41182173       0.82971336       0.00000000
Si       0.19259667       2.85553929       1.69332830       0.00000000
Si      -2.77456170       0.08404011      -1.97542326       0.00000000
Si      -0.01290168      -1.83892925       2.96244927       0.00000000
Si       1.56618577      -0.35932482      -3.25014586       0.00000000
