10
Lattice="16.290000149 0.0 0.0 0.0 16.290000149 0.0 0.0 0.0 29.1751946751" Properties=species:S:1:pos:R:3:initial_magmoms:R:1 pbc="T T T"
Si       1.91795204      -1.05829615       0.78134089       0.00000000
Si      -1.25579611      -1.31914141      -1.46964208       0.00000000
Si       1.15854481       1.44181814      -1.50389376       0.00000000
Si      -0.97143787       0.40188082       2.15496740       0.00000000
H       -1.86070898       1.98038183       0.65270746       0.00000000
Si       0.04991256       2.55550029       2.54702367       0.00000000
Si      -2.59802696      -2.61654218      -0.09919566       0.00000000
Si       2.68069871       0.12414609      -2.69835541       0.00000000
Si       3.66814965      -0.73224202      -0.70796527       0.00000000
Si       2.59841792       2.77148940      -0.29429019       0.00000000
