10
Lattice="16.290000149 0.0 0.0 0.0 16.290000149 0.0 0.0 0.0 29.1751946751" Properties=species:S:1:pos:R:3:initial_magmoms:R:1 pbc="T T T"
H       -0.04888629      -1.09112050      -1.05202834       0.00000000
Si       2.19985701       0.19451889       0.66449423       0.00000000
Si      -1.60467904      -0.66710809       1.57989514       0.00000000
Si      -0.43688151       2.14822748      -0.87583934       0.00000000
H       -1.87983344       2.44019315      -0.43564401       0.00000000
H        1.09320562       0.75179980      -2.98424314       0.00000000
Si      -3.15573141      -1.38714238      -0.00822740       0.00000000
H       -1.30083796      -3.26213932       0.68366234       0.00000000
Si       2.99415090      -2.06847164       0.46455662       0.00000000
Si       3.51881922      -0.06362874      -1.24548906       0.00000000
