10
Lattice="16.290000149 0.0 0.0 0.0 16.290000149 0.0 0.0 0.0 29.1751946751" Properties=species:S:1:pos:R:3:initial_magmoms:R:1 pbc="T T T"
H       -0.42046282      -0.83442268       1.47203445       0.00000000
Si      -1.49745989       1.21699333      -1.33800360       0.00000000
Si       1.10486112      -1.51658761      -1.42051105       0.00000000
Si       1.18630134       1.57672540       1.35699665       0.00000000
H        2.66963618       0.05734080       0.73331852       0.00000000
H        0.01687481       2.48448566       1.66351125       0.00000000
Si      -1.71027245      -1.81472556       1.75833063       0.00000000
Si       3.28279178      -1.25126749       1.17937807       0.00000000
Si       2.49248242      -0.18215478      -2.77146844       0.00000000
Si      -0.14899974       2.54609444      -2.74092201       0.00000000
