10
Lattice="16.290000149 0.0 0.0 0.0 16.290000149 0.0 0.0 0.0 29.1751946751" Properties=species:S:1:pos:R:3:initial_magmoms:R:1 pbc="T T T"
Si      -1.35545182       1.40895469      -1.31291294       0.00000000
Si       1.17320581       1.46862496       1.44947910       0.00000000
Si      -1.48800192      -1.19917207       1.43505489       0.00000000
Si       1.00536994      -1.24027174      -1.84430993       0.00000000
Si      -2.46419484      -0.29789523      -2.56152374       0.00000000
Si      -1.05285529      -2.24914403      -2.56919682       0.00000000
Si       2.40062474       0.49912560      -2.75723095       0.00000000
Si      -0.12913083      -2.53855217       2.81567762       0.00000000
Si       2.54692523       0.11709252       2.81046109       0.00000000
Si       2.47285460       2.95323042       0.17552468       0.00000000
