10
Lattice="16.290000149 0.0 0.0 0.0 16.290000149 0.0 0.0 0.0 29.1751946751" Properties=species:S:1:pos:R:3:initial_magmoms:R:1 pbc="T T T"
Si      -0.56405755       1.03553902       2.00964576       0.00000000
Si      -1.61764588      -1.69122782      -0.07104160       0.00000000
Si       2.19548477      -0.72024607      -0.46639466       0.00000000
Si       0.04626360       2.14476748      -0.98244551       0.00000000
Si       0.67829932       2.82158604       1.16511140       0.00000000
Si       1.90768934       0.16490367      -2.70894600       0.00000000
Si       1.92464723      -2.75255391       0.72777523       0.00000000
Si      -3.44067609      -0.23592807       0.09309805       0.00000000
Si      -0.21897018      -0.80668081      -3.39001175       0.00000000
Si      -2.79575499       1.53945388       1.67885740       0.00000000
