10
Lattice="16.290000149 0.0 0.0 0.0 16.290000149 0.0 0.0 0.0 29.1751946751" Properties=species:S:1:pos:R:3:initial_magmoms:R:1 pbc="T T T"
Si       1.34223085       1.29740077      -1.37044642       0.00000000
Si      -1.51933573       1.26669412       1.22649601       0.00000000
Si       1.02903931      -0.82244953       1.95608010       0.00000000
Si      -1.42157944      -1.38608353      -1.29931729       0.00000000
Si      -0.80163091      -2.11419767       2.59306213       0.00000000
Si      -2.45897552      -0.46081152       2.49430409       0.00000000
Si       2.59802696       2.61654218       0.09919566       0.00000000
Si      -0.07328871       2.66291655      -2.67746597       0.00000000
Si       2.70573644      -0.07162713      -2.71501444       0.00000000
Si      -0.08161290      -2.71603172      -2.70719549       0.00000000
