10
Lattice="16.290000149 0.0 0.0 0.0 16.290000149 0.0 0.0 0.0 29.1751946751" Properties=species:S:1:pos:R:3:initial_magmoms:R:1 pbc="T T T"
H        0.92186740      -0.89111188       0.80085909       0.00000000
Si       1.33841899       1.31061196      -1.39445760       0.00000000
Si      -1.11879721       1.45751518       1.45336232       0.00000000
Si      -1.29169927      -1.46663758      -1.30208894       0.00000000
H       -1.11454552      -1.22714200       2.20269802       0.00000000
Si      -2.57844475       2.64344348       0.07731427       0.00000000
Si      -0.50138991      -2.53575029       2.64875757       0.00000000
Si      -2.66451297      -0.13595634      -2.66054435       0.00000000
Si      -0.01690902       2.66747123      -2.69797613       0.00000000
Si       2.72662022       2.65864205      -0.09852463       0.00000000
