10
Lattice="16.290000149 0.0 0.0 0.0 16.290000149 0.0 0.0 0.0 29.1751946751" Properties=species:S:1:pos:R:3:initial_magmoms:R:1 pbc="T T T"
Si       1.38144088      -1.35658234      -1.32441088       0.00000000
Si       1.33706692       1.32470281       1.40459598       0.00000000
Si      -1.35314515      -1.39763314       1.32027967       0.00000000
Si      -1.32849838       1.39569463      -1.36932609       0.00000000
Si      -0.03132567      -2.65178396      -2.66904221       0.00000000
Si      -2.65818593       2.70995555       0.05038264       0.00000000
Si       2.70236441       0.04680117      -2.66675984       0.00000000
Si      -2.70485678      -0.02831202       2.67882261       0.00000000
Si      -2.75398743       0.03469770      -2.64806962       0.00000000
Si       2.68682375       2.71998019       0.09418920       0.00000000
