10
Lattice="16.290000149 0.0 0.0 0.0 16.290000149 0.0 0.0 0.0 29.1751946751" Properties=species:S:1:pos:R:3:initial_magmoms:R:1 pbc="T T T"
Si      -1.56872701       1.28001934      -1.12280737       0.00000000
Si      -1.39382128      -1.43498611       1.17611045       0.00000000
Si       1.56359566       1.12303261       1.46841672       0.00000000
Si       1.07004124      -1.10931643      -1.86832112       0.00000000
Si       2.09627867      -2.44367921      -0.24936039       0.00000000
Si       0.30809277      -3.03205773       1.19160248       0.00000000
Si       0.04885371       2.30860253      -2.51601044       0.00000000
Si       1.83117521       0.76442455      -3.14794516       0.00000000
Si      -2.53962731       2.73655713       0.38744659       0.00000000
Si      -2.98828650      -2.24805260      -0.38505422       0.00000000
