10
Lattice="16.290000149 0.0 0.0 0.0 16.290000149 0.0 0.0 0.0 29.1751946751" Properties=species:S:1:pos:R:3:initial_magmoms:R:1 pbc="T T T"
Si       2.24466428      -0.50451759       0.28533340       0.00000000
Si      -1.57216420      -1.68852042      -0.44311286       0.00000000
Si      -0.73146988       0.63571726       2.17881112       0.00000000
Si      -0.06809220       1.46616517      -1.92961820       0.00000000
H        0.23574888      -1.12886606      -2.82585101       0.00000000
Si      -2.83553517      -0.58244896      -2.03631189       0.00000000
Si      -1.30186423       3.31635081      -1.26559077       0.00000000
Si       1.29744964      -2.22932562      -2.79921405       0.00000000
Si       3.17560684      -1.32261443      -1.70648631       0.00000000
H       -0.00679293       3.86897278      -0.34391719       0.00000000
