10
Lattice="16.290000149 0.0 0.0 0.0 16.290000149 0.0 0.0 0.0 29.1751946751" Properties=species:S:1:pos:R:3:initial_magmoms:R:1 pbc="T T T"
H       -1.06170076       1.10045956      -0.02663695       0.00000000
Si       0.27780966      -0.84974505      -2.14595227       0.00000000
Si      -0.83522089      -1.93097752       0.99502001       0.00000000
Si       1.87815720       0.90671118       1.09272774       0.00000000
Si       2.55805456      -1.22636986      -2.12888478       0.00000000
Si       0.94721464       1.72480802       3.08454746       0.00000000
Si      -2.39935412      -2.70761957      -0.60442251       0.00000000
Si      -0.39480444       0.81518745      -3.59972304       0.00000000
H        0.19025091       3.27147838      -1.76232763       0.00000000
Si      -2.86961385       0.54080520       2.35610120       0.00000000
