10
Lattice="16.290000149 0.0 0.0 0.0 16.290000149 0.0 0.0 0.0 29.1751946751" Properties=species:S:1:pos:R:3:initial_magmoms:R:1 pbc="T T T"
Si       1.34857823       1.35221662      -1.35702583       0.00000000
Si      -1.34433226       1.36298431       1.35244532       0.00000000
Si       1.34410420      -1.35604477       1.36741220       0.00000000
Si      -1.37013562      -1.34905636      -1.35492522       0.00000000
Si      -2.68180643      -0.08338851       2.60989621       0.00000000
Si       2.67088725      -2.70853832      -0.02511984       0.00000000
Si       2.66249627       2.71735121       0.03836538       0.00000000
Si      -0.02000412       2.70853832      -2.69748015       0.00000000
Si       2.69128884       0.01861947       2.72224989       0.00000000
Si      -0.02624319      -2.68082903      -2.74092201       0.00000000
