10
Lattice="16.290000149 0.0 0.0 0.0 16.290000149 0.0 0.0 0.0 29.1751946751" Properties=species:S:1:pos:R:3:initial_magmoms:R:1 pbc="T T T"
Si       0.08136855      -0.69274855      -2.22970842       0.00000000
Si      -0.98803738      -1.78726062       1.15290742       0.00000000
Si       1.83945053       0.88146820       1.18600959       0.00000000
Si      -1.63289332       1.73547146      -0.08449749       0.00000000
H        2.53571771      -0.94607434      -0.73663866       0.00000000
Si      -2.30358521      -0.46405323       2.55332551       0.00000000
Si       0.55236133       2.33046371       2.51439705       0.00000000
Si      -2.12211461      -0.31133448      -3.03669430       0.00000000
Si      -2.07228350       1.98290027      -2.36814472       0.00000000
Si       2.01956906       0.33630705      -3.12842111       0.00000000
