10
Lattice="16.290000149 0.0 0.0 0.0 16.290000149 0.0 0.0 0.0 29.1751946751" Properties=species:S:1:pos:R:3:initial_magmoms:R:1 pbc="T T T"
Si       1.05542911      -1.46795707      -1.47859887       0.00000000
Si      -1.30992778      -1.35267274       1.38798071       0.00000000
Si      -1.44857197       1.34946361      -1.28435042       0.00000000
Si       1.81125254       0.75013822       1.38532577       0.00000000
Si       2.15420591      -1.20194137       2.75486776       0.00000000
Si       0.28020429      -2.66405033       2.59770098       0.00000000
Si       2.42771501      -0.14520906      -2.83574140       0.00000000
Si      -2.70397712       0.11629431       2.59997665       0.00000000
Si       2.27996471      -3.00104157      -0.23713598       0.00000000
Si      -0.14807610       2.58921407      -2.78313852       0.00000000
