10
Lattice="16.290000149 0.0 0.0 0.0 16.290000149 0.0 0.0 0.0 29.1751946751" Properties=species:S:1:pos:R:3:initial_magmoms:R:1 pbc="T T T"
Si       1.46285830      -1.30624543       1.26273160       0.00000000
Si      -1.39748653      -1.42089038      -1.25284121       0.00000000
Si      -1.25649658       1.42678084       1.39329060       0.00000000
Si       1.38601837       1.33339027      -1.37879053       0.00000000
Si       0.17093097      -2.64192363       2.64394367       0.00000000
Si      -2.65963574      -0.03061868      -2.68473059       0.00000000
Si      -2.60320718       2.74273592      -0.02579087       0.00000000
Si       0.03187953      -2.70398853      -2.66410373       0.00000000
Si       2.75381801       0.02596626       2.66433713       0.00000000
Si       2.76862562       2.69108033      -0.04507568       0.00000000
