10
Lattice="16.290000149 0.0 0.0 0.0 16.290000149 0.0 0.0 0.0 29.1751946751" Properties=species:S:1:pos:R:3:initial_magmoms:R:1 pbc="T T T"
Si       1.29055734       1.40581072       1.31968158       0.00000000
Si      -1.32263398       1.37541358      -1.33304382       0.00000000
Si       1.40438209      -1.31725828      -1.31428417       0.00000000
Si      -1.31877325      -1.32646213       1.44110874       0.00000000
Si      -2.55922418       2.74155816       0.08568755       0.00000000
Si       0.01464471      -2.68224626      -2.63831285       0.00000000
Si       2.77516443      -2.55451637       0.13017972       0.00000000
Si      -2.71002071       0.01715337      -2.66398703       0.00000000
Si       2.73624762       0.07933230      -2.65578880       0.00000000
Si       2.70808220       0.18454941       2.69771355       0.00000000
