10
Lattice="16.290000149 0.0 0.0 0.0 16.290000149 0.0 0.0 0.0 29.1751946751" Properties=species:S:1:pos:R:3:initial_magmoms:R:1 pbc="T T T"
Si       1.37815030       1.36420606       1.30500646       0.00000000
Si      -1.31733973       1.39111714      -1.34156298       0.00000000
Si       1.32717889      -1.35909100      -1.36607014       0.00000000
Si      -1.37088496      -1.35839053       1.33733257       0.00000000
Si      -2.62930376       0.03106503      -2.68710837       0.00000000
Si      -0.00772146       2.67950954       2.66194476       0.00000000
Si       2.73847935       0.04492782      -2.62361731       0.00000000
Si       2.70741431      -0.00239463       2.68087946       0.00000000
Si      -0.09267381      -2.78796837      -2.60187595       0.00000000
Si      -0.00853596      -2.72420930       2.67303134       0.00000000
