10
Lattice="16.290000149 0.0 0.0 0.0 16.290000149 0.0 0.0 0.0 29.1751946751" Properties=species:S:1:pos:R:3:initial_magmoms:R:1 pbc="T T T"
Si       1.36220239      -1.35707756      -1.33733257       0.00000000
Si       1.37217187       1.34900749       1.34092112       0.00000000
Si      -1.34224714      -1.35468619       1.36811240       0.00000000
Si      -1.32888934       1.37095012      -1.37146755       0.00000000
Si       0.00446346       2.70599708       2.67638648       0.00000000
Si       2.71085150       0.01674612      -2.67440257       0.00000000
Si       0.00661374      -2.72891711      -2.67504442       0.00000000
Si       0.04676859      -2.70326036       2.70203148       0.00000000
Si      -2.68687262       2.72624555      -0.01622141       0.00000000
Si      -2.69886206      -2.71746524       0.01811780       0.00000000
