10
Lattice="16.290000149 0.0 0.0 0.0 16.290000149 0.0 0.0 0.0 29.1751946751" Properties=species:S:1:pos:R:3:initial_magmoms:R:1 pbc="T T T"
H        0.64586593      -0.84706372       1.07417232       0.00000000
Si      -1.42983847       1.22556187       1.28907680       0.00000000
Si      -1.43987311      -1.32967126      -1.20960357       0.00000000
Si       1.49602474       1.36630747      -1.16201883       0.00000000
Si       0.05642856       2.23891391       2.75921486       0.00000000
Si       0.08228079      -2.64734331      -2.40406522       0.00000000
Si       1.06973173      -3.50373142      -0.41367509       0.00000000
Si      -2.68214852       0.06074541      -2.57961236       0.00000000
Si       0.15454323       2.71248050      -2.54457295       0.00000000
Si       2.81281062      -0.59649094       2.40088512       0.00000000
