10
Lattice="16.290000149 0.0 0.0 0.0 16.290000149 0.0 0.0 0.0 29.1751946751" Properties=species:S:1:pos:R:3:initial_magmoms:R:1 pbc="T T T"
Si      -1.34561917      -1.33024141       1.37155508       0.00000000
Si       1.37142253      -1.35653347      -1.32598342       0.00000000
Si       1.35977518       1.30740283       1.39048978       0.00000000
Si      -1.35651718       1.33459084      -1.37674826       0.00000000
Si      -0.06890670       2.75103894       2.51265529       0.00000000
Si      -0.00179190      -2.72305271      -2.65555539       0.00000000
Si      -2.78225058       0.03867246       2.60659942       0.00000000
Si       2.72706006       0.01746288      -2.66707960       0.00000000
Si       2.70941798       2.69930189       0.04583423       0.00000000
Si      -2.72732069      -2.68323995       0.03241364       0.00000000
