10
Lattice="16.290000149 0.0 0.0 0.0 16.290000149 0.0 0.0 0.0 29.1751946751" Properties=species:S:1:pos:R:3:initial_magmoms:R:1 pbc="T T T"
Si       0.04888629       1.09112050       1.05202834       0.00000000
H        0.70475428      -1.47598804      -2.12369160       0.00000000
H        1.14209191       1.84292030      -1.93221479       0.00000000
Si      -2.49481352      -1.36172998      -0.98915580       0.00000000
H       -1.25195167      -2.17101882       1.73569068       0.00000000
Si      -1.55579275       0.42401241       2.63192349       0.00000000
Si       2.24874330       1.28563939       1.71652258       0.00000000
Si      -0.58505536      -2.45629093      -1.83739541       0.00000000
Si      -0.38799522       3.23934798       0.17618900       0.00000000
Si      -3.10684512      -0.29602188       1.04380094       0.00000000
