10
Lattice="16.290000149 0.0 0.0 0.0 16.290000149 0.0 0.0 0.0 29.1751946751" Properties=species:S:1:pos:R:3:initial_magmoms:R:1 pbc="T T T"
Si      -1.40318510       1.16939395      -1.45934324       0.00000000
Si      -1.46026526      -1.17807652       1.41572632       0.00000000
Si       1.46055457      -1.27905823      -1.34567668       0.00000000
Si       1.21975090       1.49084452       1.39731969       0.00000000
H       -2.30188812       1.91466146      -0.48176999       0.00000000
Si       2.65139594       0.41401035      -2.53622885       0.00000000
Si      -0.07214548      -2.53799831       2.77182730       0.00000000
Si      -2.85534087      -2.49963536       0.05053144       0.00000000
Si       2.60509976       0.15117120       2.76890394       0.00000000
Si      -0.25068388       2.80750008      -2.64090945       0.00000000
