10
Lattice="16.290000149 0.0 0.0 0.0 16.290000149 0.0 0.0 0.0 29.1751946751" Properties=species:S:1:pos:R:3:initial_magmoms:R:1 pbc="T T T"
Si       1.29181330      -1.41327154       1.35877634       0.00000000
Si      -1.33284781       1.06694614       1.62292855       0.00000000
Si       1.31877325       1.32646213      -1.44110874       0.00000000
Si      -1.40962258      -1.36373365      -1.31839787       0.00000000
H       -2.51906933       1.57969018       0.82530791       0.00000000
Si       2.71365013       0.02301777       2.52610506       0.00000000
Si      -2.02610135      -0.79146595       3.04343961       0.00000000
Si      -0.34552719      -2.46857033       2.79279551       0.00000000
H       -1.88739200       3.24071634      -0.27923579       0.00000000
Si       2.60933059       2.73227285      -0.12142716       0.00000000
