10
Lattice="16.290000149 0.0 0.0 0.0 16.290000149 0.0 0.0 0.0 29.1751946751" Properties=species:S:1:pos:R:3:initial_magmoms:R:1 pbc="T T T"
Si      -1.28980963      -0.98030289       0.28629619       0.00000000
Si       0.42046282       0.83442268      -1.47203445       0.00000000
H       -0.70475428       1.47598804       2.12369160       0.00000000
Si       1.60676416       2.41114808      -0.11503779       0.00000000
Si      -0.61719553      -2.64523538       1.74006696       0.00000000
H        3.09009900       0.89176348      -0.73871593       0.00000000
Si       1.52532394      -0.68216493      -2.89254550       0.00000000
H        0.43733763       3.31890834       0.19147680       0.00000000
Si      -3.19956780       0.11425806       1.13453580       0.00000000
Si      -2.35499645      -1.92815072      -1.58972718       0.00000000
