10
Lattice="16.290000149 0.0 0.0 0.0 16.290000149 0.0 0.0 0.0 29.1751946751" Properties=species:S:1:pos:R:3:initial_magmoms:R:1 pbc="T T T"
Si      -1.36188593      -1.39527109      -1.31830159       0.00000000
Si       1.29359380      -1.35355240       1.43136423       0.00000000
Si      -1.35001193       1.32641326       1.40726552       0.00000000
Si       1.37468542       1.36060597      -1.36151006       0.00000000
Si      -2.66072229      -2.68516055       0.15451183       0.00000000
Si      -2.81195865      -0.01065366      -2.54482678       0.00000000
Si       0.07121336      -2.70254686      -2.66924148       0.00000000
Si       2.69482703       2.70192458       0.03258869       0.00000000
Si       2.65079516      -2.74859218       0.14310433       0.00000000
Si      -2.67997707       2.73504216       0.09633649       0.00000000
