10
Lattice="16.290000149 0.0 0.0 0.0 16.290000149 0.0 0.0 0.0 29.1751946751" Properties=species:S:1:pos:R:3:initial_magmoms:R:1 pbc="T T T"
H       -1.44295192       0.29196567       0.44019534       0.00000000
Si       0.43688151      -2.14822748       0.87583934       0.00000000
Si      -0.35631117       0.23340312      -2.35983562       0.00000000
Si       1.22052826       1.58728132       1.41756436       0.00000000
H        0.18376749       2.69410538      -0.98515880       0.00000000
H        1.53008713      -1.39642768      -2.10840379       0.00000000
H        0.38799522      -3.23934798      -0.17618900       0.00000000
Si      -0.79053742       2.95194351       1.49753357       0.00000000
Si       3.41640399       0.16478964       0.37565981       0.00000000
Si      -2.66667302       2.24295383       0.22117715       0.00000000
