10
Lattice="16.290000149 0.0 0.0 0.0 16.290000149 0.0 0.0 0.0 29.1751946751" Properties=species:S:1:pos:R:3:initial_magmoms:R:1 pbc="T T T"
Si       1.34581465       1.33010783      -1.34711210       0.00000000
Si      -1.35720136       1.39503977       1.28825990       0.00000000
Si       1.37026594      -1.36091874       1.31332139       0.00000000
Si      -1.30098457      -1.32727989      -1.42534247       0.00000000
Si      -2.68093329       0.01165387       2.65103324       0.00000000
Si      -0.01713708      -2.71989571       2.61777352       0.00000000
Si       0.03476286       2.73894850       2.61689826       0.00000000
Si       2.72585460       0.01092082       2.65103324       0.00000000
Si      -2.57958180       0.04604531      -2.81234581       0.00000000
Si      -2.65079516       2.74859218      -0.14310433       0.00000000
