10
Lattice="16.290000149 0.0 0.0 0.0 16.290000149 0.0 0.0 0.0 29.1751946751" Properties=species:S:1:pos:R:3:initial_magmoms:R:1 pbc="T T T"
H        0.64943344      -0.42502239       0.03982414       0.00000000
H       -1.14881968      -1.63551602       1.12166953       0.00000000
Si      -1.86636161      -1.71867647      -0.20361368       0.00000000
Si       0.85185298       1.74022814       1.75585074       0.00000000
Si      -0.08778681       0.82463239      -2.57587794       0.00000000
Si      -2.20931498       0.23340312      -1.57315567       0.00000000
Si       2.63417447       0.19605015       1.12391602       0.00000000
Si       1.39918069      -0.97349041      -2.45920633       0.00000000
Si      -0.25433577      -2.50442462      -1.72547936       0.00000000
Si      -0.37059750       3.06370920       0.24014103       0.00000000
