10
Lattice="16.290000149 0.0 0.0 0.0 16.290000149 0.0 0.0 0.0 29.1751946751" Properties=species:S:1:pos:R:3:initial_magmoms:R:1 pbc="T T T"
Si       1.36702423      -1.35744571       1.32758806       0.00000000
Si       1.36876726       1.34343631      -1.34278833       0.00000000
Si      -1.33957558      -1.36306576      -1.36554499       0.00000000
Si      -1.31823568       1.36287028       1.39081071       0.00000000
Si      -0.01342296       2.68899032      -2.67909978       0.00000000
Si      -0.01026270      -2.68711697       2.68201730       0.00000000
Si       2.71570592       0.00408879       2.67580298       0.00000000
Si      -2.69885066      -2.71459820      -0.00353020       0.00000000
Si      -2.69068286      -0.00425169      -2.72540081       0.00000000
Si       2.71870328      -0.02163312      -2.69858881       0.00000000
