10
Lattice="16.290000149 0.0 0.0 0.0 16.290000149 0.0 0.0 0.0 29.1751946751" Properties=species:S:1:pos:R:3:initial_magmoms:R:1 pbc="T T T"
Si       1.34572343      -1.36112074       1.35545037       0.00000000
Si      -1.31377271      -1.38364981      -1.36417375       0.00000000
Si      -1.38000085       1.34832983       1.34077525       0.00000000
Si       1.32373193       1.38338591      -1.36277334       0.00000000
Si      -2.63058416       0.05177777      -2.63962574       0.00000000
Si       2.68093329      -0.01165387      -2.65103324       0.00000000
Si      -0.01002324       2.71783014       2.66556249       0.00000000
Si       2.66379621      -2.73154958      -0.03325972       0.00000000
Si       2.70233835       0.00165832       2.70544498       0.00000000
Si      -0.03002247      -2.70924857       2.70579508       0.00000000
