10
Lattice="16.290000149 0.0 0.0 0.0 16.290000149 0.0 0.0 0.0 29.1751946751" Properties=species:S:1:pos:R:3:initial_magmoms:R:1 pbc="T T T"
Si      -1.29192733      -1.33567820       1.38121207       0.00000000
Si       1.29095971       1.33221169       1.40160553       0.00000000
Si      -1.46285830       1.30624543      -1.26273160       0.00000000
Si       1.38568606      -1.38980987      -1.28683031       0.00000000
Si       2.63549396      -0.08805967       2.62818906       0.00000000
Si      -0.07683993       2.63963570      -2.64152213       0.00000000
Si      -2.58936068       0.08622590       2.70442385       0.00000000
Si       2.67858101       2.66664452       0.05064814       0.00000000
Si      -2.57834864      -2.79029376       0.08597930       0.00000000
Si       2.72466542      -0.03648553      -2.65231695       0.00000000
