10
Lattice="16.290000149 0.0 0.0 0.0 16.290000149 0.0 0.0 0.0 29.1751946751" Properties=species:S:1:pos:R:3:initial_magmoms:R:1 pbc="T T T"
Si      -1.33820722      -1.28677969      -1.43544875       0.00000000
Si      -1.12428694       1.11676096       1.75205797       0.00000000
Si       1.35697330       1.38158749      -1.35702583       0.00000000
Si       1.34298019      -1.41185431       1.37797362       0.00000000
Si       0.74049454       1.95385520       3.00481165       0.00000000
Si       2.42106869       0.27675081       2.75416755       0.00000000
Si      -2.77780341      -0.41417325       2.48578494       0.00000000
Si       0.03842811      -2.63738360      -2.76855092       0.00000000
Si       2.79313230      -2.62057232       0.00408453       0.00000000
Si       2.74071108       0.04979853      -2.73310306       0.00000000
