10
Lattice="16.290000149 0.0 0.0 0.0 16.290000149 0.0 0.0 0.0 29.1751946751" Properties=species:S:1:pos:R:3:initial_magmoms:R:1 pbc="T T T"
Si      -1.41519376      -1.32664132       1.23839949       0.00000000
Si       1.36067113      -1.37021707      -1.26305253       0.00000000
Si       1.23004162       1.13886649       1.62558350       0.00000000
Si      -1.39535254       1.44860455      -1.19548278       0.00000000
Si      -0.37124910       1.06528456       3.41723220       0.00000000
Si       2.69814530       0.07615575      -2.52050342       0.00000000
Si      -2.49790862       0.09370008       2.73616646       0.00000000
Si      -0.05901867      -2.68016114      -2.57757010       0.00000000
Si       2.52617177       2.72701119       0.34593028       0.00000000
Si      -0.12095325      -2.62130537       2.66462888       0.00000000
