10
Lattice="16.290000149 0.0 0.0 0.0 16.290000149 0.0 0.0 0.0 29.1751946751" Properties=species:S:1:pos:R:3:initial_magmoms:R:1 pbc="T T T"
Si       0.61315561      -1.30860829       0.44605955       0.00000000
Si      -1.48333483       1.51938460       0.62367814       0.00000000
H        2.03641292       0.33603012      -1.40183893       0.00000000
Si       1.11454552       1.22714200      -2.20269802       0.00000000
Si      -2.66963618      -0.05734080      -0.73331852       0.00000000
Si      -0.00425169       2.68465718      -0.74933570       0.00000000
Si      -1.56477506      -1.57392841      -2.15382957       0.00000000
Si      -0.22714776       1.61171632       2.66894681       0.00000000
Si      -0.22024080      -2.99419977      -0.92724604       0.00000000
Si       2.92568403      -1.24247089       0.10042102       0.00000000
