10
Lattice="16.290000149 0.0 0.0 0.0 16.290000149 0.0 0.0 0.0 29.1751946751" Properties=species:S:1:pos:R:3:initial_magmoms:R:1 pbc="T T T"
Si       1.35532801      -1.35685927       1.30351852       0.00000000
Si       1.37259541       1.25389018      -1.43118917       0.00000000
Si      -1.30706074      -1.43242858      -1.32417456       0.00000000
Si      -1.19733130       1.40287852       1.47571052       0.00000000
Si      -2.56811364       2.64013661       0.03124663       0.00000000
Si       2.72210789       2.59716359      -0.11807201       0.00000000
Si      -2.63768497      -0.07289775      -2.68826079       0.00000000
Si      -2.56153573      -0.02402775       2.77529039       0.00000000
Si       2.74352924      -0.00882918       2.59945150       0.00000000
Si       0.01690902      -2.66747123       2.69797613       0.00000000
