10
Lattice="16.290000149 0.0 0.0 0.0 16.290000149 0.0 0.0 0.0 29.1751946751" Properties=species:S:1:pos:R:3:initial_magmoms:R:1 pbc="T T T"
Si       1.36997761       1.36950031       1.32478724       0.00000000
Si      -1.32514264       1.38368890      -1.35979747       0.00000000
Si       1.38000085      -1.34832983      -1.34077525       0.00000000
Si      -1.35193969      -1.35138095       1.37298466       0.00000000
Si      -2.68348430      -2.70635546      -0.01035719       0.00000000
Si      -2.69361668       0.03473028      -2.69771355       0.00000000
Si       0.00418653       2.72153774       2.67346896       0.00000000
Si       2.69838965       0.00851967       2.69867633       0.00000000
Si       2.70373277       0.03505608      -2.70354859       0.00000000
Si      -2.69058674       2.73118142      -0.00986122       0.00000000
