10
Lattice="16.290000149 0.0 0.0 0.0 16.290000149 0.0 0.0 0.0 29.1751946751" Properties=species:S:1:pos:R:3:initial_magmoms:R:1 pbc="T T T"
Si       1.60251247      -0.12807198      -1.67249721       0.00000000
Si      -0.39998466       2.28840456      -0.31722189       0.00000000
Si       0.29014119      -0.52916436       2.28484224       0.00000000
Si      -1.86830012      -1.31839858      -0.65650023       0.00000000
H        1.38134314      -2.24349140       1.45715510       0.00000000
H       -2.75582820      -0.47328966      -1.54821088       0.00000000
Si      -1.45140643       1.01840194       2.73374200       0.00000000
Si      -2.29135142       2.26971667       1.02556644       0.00000000
Si       0.09352089      -0.95381209      -3.28731506       0.00000000
Si      -0.81718786      -2.79873606      -2.12240789       0.00000000
