10
Lattice="16.290000149 0.0 0.0 0.0 16.290000149 0.0 0.0 0.0 29.1751946751" Properties=species:S:1:pos:R:3:initial_magmoms:R:1 pbc="T T T"
Si       1.22367223      -1.53316594       1.24044175       0.00000000
Si      -1.38644191      -1.35096229      -1.29464926       0.00000000
Si      -1.05782374       1.46419408       1.48026185       0.00000000
Si       1.37601631       1.31888728      -1.35682160       0.00000000
Si       0.75629584       2.22076685       2.86541257       0.00000000
Si      -2.37255707       0.11292228       2.87206451       0.00000000
Si      -0.01783755       2.60121980      -2.71866134       0.00000000
Si      -0.02594997      -2.69990462      -2.62754721       0.00000000
Si      -2.50136210       2.81559621       0.19112670       0.00000000
Si      -2.74126494       0.00562005      -2.59886799       0.00000000
