10
Lattice="16.290000149 0.0 0.0 0.0 16.290000149 0.0 0.0 0.0 29.1751946751" Properties=species:S:1:pos:R:3:initial_magmoms:R:1 pbc="T T T"
Si       1.36739890       1.34886088       1.33925814       0.00000000
Si       1.44306595      -1.33227766      -1.28242486       0.00000000
Si      -1.34972425      -1.38708700       1.33593216       0.00000000
Si      -1.37727064       1.34092765      -1.35775521       0.00000000
Si       0.12162114      -2.67026073      -2.62086609       0.00000000
Si       0.03446964       2.74436004      -2.61555620       0.00000000
Si       0.00263898       2.69632082       2.68948615       0.00000000
Si       2.69311169      -0.03412755       2.69914314       0.00000000
Si      -2.71243163      -0.02464677       2.68157967       0.00000000
Si      -2.79678126      -0.08793342      -2.59310881       0.00000000
