10
Lattice="16.290000149 0.0 0.0 0.0 16.290000149 0.0 0.0 0.0 29.1751946751" Properties=species:S:1:pos:R:3:initial_magmoms:R:1 pbc="T T T"
Si       1.38034782      -1.38427534       1.28688866       0.00000000
Si       1.39131099       1.56462193      -1.06250224       0.00000000
Si      -1.44873178       1.34488612       1.28872670       0.00000000
Si      -1.09578921      -1.65604142      -1.31084150       0.00000000
H        0.32390873       2.45244323      -1.85767217       0.00000000
Si       2.37346768      -2.59416623      -0.58650894       0.00000000
Si      -2.76659751      -2.42887160       0.13750269       0.00000000
Si       2.54387737       0.11839572       2.71396705       0.00000000
Si      -0.12157390      -2.56217267       2.70961995       0.00000000
Si      -2.83229509       2.51442668      -0.19424845       0.00000000
