10
Lattice="16.290000149 0.0 0.0 0.0 16.290000149 0.0 0.0 0.0 29.1751946751" Properties=species:S:1:pos:R:3:initial_magmoms:R:1 pbc="T T T"
H       -0.91579123       0.74261224       0.96333575       0.00000000
Si       1.07460244       1.69999184      -1.16861242       0.00000000
Si       1.38356331      -1.16954056       1.48297515       0.00000000
Si      -1.60870267      -1.12642093      -1.32309508       0.00000000
H        3.15620382      -0.06198345      -1.66342372       0.00000000
Si      -2.00699318       2.45693927       1.79102290       0.00000000
Si      -0.69462190       2.85803166      -2.16631656       0.00000000
Si       2.22223295       0.66691261      -2.89292478       0.00000000
Si      -0.07954407      -2.34711209       2.89827259       0.00000000
Si       2.83229508      -2.51442668       0.19424845       0.00000000
