10
Lattice="16.290000149 0.0 0.0 0.0 16.290000149 0.0 0.0 0.0 29.1751946751" Properties=species:S:1:pos:R:3:initial_magmoms:R:1 pbc="T T T"
Si       0.92079226       0.07714944      -1.20861161       0.00000000
H       -1.25027380      -1.74957860      -0.41560065       0.00000000
H        1.89351704       0.41767560       1.24362185       0.00000000
Si      -1.76937095      -2.00992538       0.97401387       0.00000000
Si       0.03513753       1.49802841      -2.80300683       0.00000000
Si       1.19514844       2.94560507       0.25980511       0.00000000
Si       1.26086230      -2.04540500      -2.13924197       0.00000000
Si       2.80709283       1.41760468      -0.82037730       0.00000000
Si      -2.63878454      -0.14626791       2.08690168       0.00000000
H       -2.85360078      -0.86700268      -1.63993769       0.00000000
