10
Lattice="16.290000149 0.0 0.0 0.0 16.290000149 0.0 0.0 0.0 29.1751946751" Properties=species:S:1:pos:R:3:initial_magmoms:R:1 pbc="T T T"
H       -0.60343048      -0.08928549      -1.39889223       0.00000000
Si       0.46387404      -2.02531943       1.06571151       0.00000000
Si      -1.71989822       0.43391673       1.52694216       0.00000000
H        1.50711823      -0.84517408      -1.70365632       0.00000000
Si       1.88597477       1.50855175       0.32323198       0.00000000
Si       0.78060052      -0.91921213      -3.02605119       0.00000000
Si      -2.53255745       2.27875925       0.38557937       0.00000000
Si      -0.34782408       1.47393550       3.16387481       0.00000000
Si       2.05811120      -1.20878317       2.62445464       0.00000000
Si       0.91665460       2.95855725       1.84019623       0.00000000
