10
Lattice="16.290000149 0.0 0.0 0.0 16.290000149 0.0 0.0 0.0 29.1751946751" Properties=species:S:1:pos:R:3:initial_magmoms:R:1 pbc="T T T"
Si       1.38878767       1.34516305       1.27682322       0.00000000
Si       1.25672464      -1.40225950      -1.36464639       0.00000000
Si      -1.31414689       1.26361531      -1.47304974       0.00000000
Si      -1.41174028      -1.40343238       1.25780099       0.00000000
Si      -2.17210862      -0.67227202      -2.51396817       0.00000000
Si      -0.46731123      -2.34149204      -2.64125663       0.00000000
Si      -0.03593574       2.70482420       2.54731542       0.00000000
Si       2.71812646      -0.06385680       2.58816069       0.00000000
Si       2.57965184      -0.07830603      -2.72894035       0.00000000
Si       2.68459202       2.65948913      -0.19145346       0.00000000
