10
Lattice="16.290000149 0.0 0.0 0.0 16.290000149 0.0 0.0 0.0 29.1751946751" Properties=species:S:1:pos:R:3:initial_magmoms:R:1 pbc="T T T"
Si      -1.30396564      -1.35141841       1.43579886       0.00000000
Si       1.36223986      -1.45828081      -1.28507980       0.00000000
Si       1.38956959       1.28863675       1.43506948       0.00000000
Si      -1.30095199       1.52710606      -1.32316218       0.00000000
Si       2.70233183       0.00330687      -2.52386469       0.00000000
Si      -2.52993476       2.73002093       0.27646414       0.00000000
Si      -2.65100204      -2.68584635       0.04930900       0.00000000
Si       2.80157052       2.67991679       0.17938660       0.00000000
Si      -2.64800468      -0.04802292       2.85884815       0.00000000
Si       0.10805010       2.63355545       2.89161189       0.00000000
