10
Lattice="16.290000149 0.0 0.0 0.0 16.290000149 0.0 0.0 0.0 29.1751946751" Properties=species:S:1:pos:R:3:initial_magmoms:R:1 pbc="T T T"
Si      -1.24344829       1.09427913      -1.61569311       0.00000000
Si      -1.89136676      -0.01868789       1.34278833       0.00000000
Si       0.39998466      -2.28840456       0.31722189       0.00000000
Si       1.58669488       1.67535973       0.43441865       0.00000000
H        1.86010625       0.61229549      -2.39397060       0.00000000
H       -2.07036128       1.36894482       1.95135372       0.00000000
Si       2.00249714      -2.41647654      -1.35527532       0.00000000
Si      -1.05142177      -1.27000262       3.05096389       0.00000000
Si       0.85602322       2.30697190       2.61529654       0.00000000
Si      -2.57285891       2.64059111      -0.45428696       0.00000000
