10
Lattice="16.290000149 0.0 0.0 0.0 16.290000149 0.0 0.0 0.0 29.1751946751" Properties=species:S:1:pos:R:3:initial_magmoms:R:1 pbc="T T T"
Si       0.80167978      -0.99929377      -1.93839993       0.00000000
Si      -1.33253830      -1.33053463       1.39970914       0.00000000
Si       1.60870267       1.12642093       1.32309508       0.00000000
Si      -1.50561955       1.31378851      -1.29313215       0.00000000
H        1.26446239       0.28740447      -2.58104195       0.00000000
H        0.69291145       1.86903317       2.28643083       0.00000000
Si      -2.55673181       2.79412599       0.17277550       0.00000000
Si      -1.07075800      -1.69562612      -3.22321716       0.00000000
Si      -2.89530318      -2.45702072      -0.06783233       0.00000000
Si      -2.53320905       0.13906773       2.83081079       0.00000000
