10
Lattice="16.290000149 0.0 0.0 0.0 16.290000149 0.0 0.0 0.0 29.1751946751" Properties=species:S:1:pos:R:3:initial_magmoms:R:1 pbc="T T T"
Si      -1.34688979      -1.34750881       1.36846251       0.00000000
Si       1.35306370      -1.36964692      -1.35679243       0.00000000
Si      -1.36563958       1.34768800      -1.37257621       0.00000000
Si       1.33038802       1.34568433       1.41455931       0.00000000
Si      -2.64715907       2.69260670       0.08396621       0.00000000
Si       0.04636134       2.73896805      -2.62825908       0.00000000
Si       2.70394454       0.02961522      -2.67773438       0.00000000
Si      -2.71147052      -2.67761990      -0.00991957       0.00000000
Si       2.71806797       2.70554096       0.11147842       0.00000000
Si       0.00389331      -2.70669755       2.72811410       0.00000000
