10
Lattice="16.290000149 0.0 0.0 0.0 16.290000149 0.0 0.0 0.0 29.1751946751" Properties=species:S:1:pos:R:3:initial_magmoms:R:1 pbc="T T T"
Si      -1.33346683      -1.34025162       1.32871422       0.00000000
Si       1.50113980      -1.23497260      -1.27745632       0.00000000
Si      -1.24913350       1.37024965      -1.41423547       0.00000000
Si       1.41951061       1.42886107       1.23535360       0.00000000
Si       0.65914228       2.16002144      -2.53641557       0.00000000
H       -0.56244484      -0.44722566      -3.32764685       0.00000000
Si       2.36393966       0.49080141      -2.66370403       0.00000000
Si       0.10075365      -2.68701923       2.58960778       0.00000000
Si      -2.66398517       0.07866441       2.61496103       0.00000000
Si      -2.69452892      -2.62320630      -0.08018511       0.00000000
