10
Lattice="16.290000149 0.0 0.0 0.0 16.290000149 0.0 0.0 0.0 29.1751946751" Properties=species:S:1:pos:R:3:initial_magmoms:R:1 pbc="T T T"
Si      -1.31038390       0.46271745      -0.60871126       0.00000000
H        0.57101338      -0.11482821      -2.33929628       0.00000000
Si       1.75747925      -0.63037414      -1.54322192       0.00000000
Si       1.06605019      -2.49277727      -0.12271087       0.00000000
Si      -2.57336390       0.71071642       1.32776311       0.00000000
Si       0.43279272      -2.16106400       2.20634492       0.00000000
Si      -2.28356480      -1.53259579      -1.48732225       0.00000000
Si      -1.34236117      -0.60979987       2.84172231       0.00000000
Si      -1.03873186       2.49323339      -1.80477754       0.00000000
Si       3.06177069       1.03586482      -0.36177241       0.00000000
