10
Lattice="16.290000149 0.0 0.0 0.0 16.290000149 0.0 0.0 0.0 29.1751946751" Properties=species:S:1:pos:R:3:initial_magmoms:R:1 pbc="T T T"
Si      -2.05213277       0.75776194      -0.86192278       0.00000000
Si      -0.78659524      -1.50280464       1.71351753       0.00000000
Si       0.92176966       2.07840528       0.81524246       0.00000000
Si       1.04591575      -0.67222640      -2.07564005       0.00000000
H       -1.39155697       2.27893518       1.73315244       0.00000000
Si      -1.30693042       1.31743421      -3.01858234       0.00000000
Si      -2.67283064       2.24161479       0.91330029       0.00000000
H        0.38851650      -3.54762320      -0.58335802       0.00000000
Si      -2.32603283      -2.74016047       0.45347005       0.00000000
Si      -3.34113605      -1.20352476      -1.00765287       0.00000000
