10
Lattice="16.290000149 0.0 0.0 0.0 16.290000149 0.0 0.0 0.0 29.1751946751" Properties=species:S:1:pos:R:3:initial_magmoms:R:1 pbc="T T T"
Si       0.88565473      -1.42087897       1.59439521       0.00000000
Si      -2.23133906       0.51036570      -0.32921290       0.00000000
Si       0.56500237      -1.03718431      -2.00626144       0.00000000
Si       1.24556599       1.78539216      -0.84065406       0.00000000
H       -0.03513753      -1.49802841       2.80300683       0.00000000
Si       0.60711202       1.10768743      -2.98678138       0.00000000
Si       2.77195530      -0.08042373       1.98262953       0.00000000
Si       3.30162465       1.17106530       0.05085236       0.00000000
Si       1.16001091       1.44757665       3.06281194       0.00000000
Si      -1.05531508      -2.72279207      -2.08232117       0.00000000
