10
Lattice="16.290000149 0.0 0.0 0.0 16.290000149 0.0 0.0 0.0 29.1751946751" Properties=species:S:1:pos:R:3:initial_magmoms:R:1 pbc="T T T"
Si       1.34697124      -1.34768800      -1.36674117       0.00000000
Si      -1.35400852      -1.37471311       1.34272998       0.00000000
Si      -1.35555607       1.32994819      -1.38765978       0.00000000
Si       1.36526491       1.33977106       1.37210941       0.00000000
Si      -0.01834254       2.68343543       2.70766229       0.00000000
Si      -2.72730440      -0.01573614       2.66375362       0.00000000
Si       2.68312592      -2.72302013      -0.01353729       0.00000000
Si      -0.01190799      -2.71324613      -2.69745097       0.00000000
Si      -2.73471635       2.67698459      -0.06672367       0.00000000
Si       2.70985781       2.71127504       0.00939441       0.00000000
