10
Lattice="16.290000149 0.0 0.0 0.0 16.290000149 0.0 0.0 0.0 29.1751946751" Properties=species:S:1:pos:R:3:initial_magmoms:R:1 pbc="T T T"
Si       1.38505726      -1.35016408      -1.35483769       0.00000000
Si      -1.35216775      -1.38443824       1.35437089       0.00000000
Si       1.41045337       1.36321237       1.31766849       0.00000000
Si      -1.33177267       1.31528719      -1.44247998       0.00000000
Si      -2.69083109      -2.67214646      -0.07614726       0.00000000
Si       2.70163136      -0.05703129       2.67104742       0.00000000
H       -1.11202057       2.94912534       2.13962125       0.00000000
Si       0.07444530       2.43357941       2.93569561       0.00000000
Si       2.72753246       2.69122205      -0.12387788       0.00000000
Si       0.04114854      -2.67709862      -2.76186980       0.00000000
