10
Lattice="16.290000149 0.0 0.0 0.0 16.290000149 0.0 0.0 0.0 29.1751946751" Properties=species:S:1:pos:R:3:initial_magmoms:R:1 pbc="T T T"
Si      -1.36020198      -1.35018037       1.35320388       0.00000000
Si      -1.38935619       1.34863282      -1.32971785       0.00000000
Si       1.31826826      -1.36246303      -1.39101493       0.00000000
Si       1.36933741       1.36215352       1.35186182       0.00000000
Si      -0.01311345       2.69619050      -2.67933318       0.00000000
Si       0.01027899      -2.69288363       2.70923775       0.00000000
Si       2.68512959      -2.71995761      -0.06325182       0.00000000
Si       2.68692149      -0.01868463      -2.73362822       0.00000000
Si      -2.69902948       0.01286910       2.72548834       0.00000000
Si      -2.70329956      -0.01690902      -2.72470061       0.00000000
