10
Lattice="16.290000149 0.0 0.0 0.0 16.290000149 0.0 0.0 0.0 29.1751946751" Properties=species:S:1:pos:R:3:initial_magmoms:R:1 pbc="T T T"
Si      -1.88630057      -1.34045524      -0.38823432       0.00000000
Si       0.52966935       1.25148904      -1.93177716       0.00000000
Si       1.93577330      -1.48045150       0.32489497       0.00000000
H       -0.91357579      -0.99992908       2.06399915       0.00000000
Si      -1.61194438       1.52800039       1.08018241       0.00000000
H       -2.80709283      -1.41760468       0.82037730       0.00000000
Si       0.19881945       2.85604428       1.67929503       0.00000000
Si      -2.77195530       0.08042373      -1.98262953       0.00000000
Si      -0.02604771      -1.84503800       2.95570980       0.00000000
Si       1.56677221      -0.37424646      -3.24177258       0.00000000
