10
Lattice="16.290000149 0.0 0.0 0.0 16.290000149 0.0 0.0 0.0 29.1751946751" Properties=species:S:1:pos:R:3:initial_magmoms:R:1 pbc="T T T"
Si       1.91643707      -1.06101658       0.78061151       0.00000000
Si      -1.25437888      -1.31660668      -1.47247208       0.00000000
Si       1.16040187       1.44089938      -1.50155974       0.00000000
Si      -0.97021612       0.40852062       2.15003680       0.00000000
H       -1.87704785       1.97284934       0.65536240       0.00000000
Si       0.04829985       2.55761147       2.54728625       0.00000000
Si      -2.59942790      -2.60850143      -0.10468060       0.00000000
Si       3.66290427      -0.73848598      -0.71134960       0.00000000
Si       2.68050323       0.12265393      -2.69783025       0.00000000
Si       2.59936274       2.77017969      -0.28997226       0.00000000
