10
Lattice="16.290000149 0.0 0.0 0.0 16.290000149 0.0 0.0 0.0 29.1751946751" Properties=species:S:1:pos:R:3:initial_magmoms:R:1 pbc="T T T"
Si       1.35977518      -1.35284216       1.35282460       0.00000000
Si      -1.36270738       1.36244023       1.34564750       0.00000000
Si       1.34972425       1.38708700      -1.33593216       0.00000000
Si      -1.34630335      -1.38786566      -1.33943319       0.00000000
Si      -2.78052384      -0.04109804      -2.60032675       0.00000000
Si       0.00001629      -2.71625001       2.69508778       0.00000000
Si       2.79279021       0.05480933      -2.61835702       0.00000000
Si      -0.00345348       2.70613718       2.70938363       0.00000000
Si      -0.02754639       2.72801465      -2.69368737       0.00000000
Si      -2.72723924       0.01533215       2.69599221       0.00000000
