10
Lattice="16.290000149 0.0 0.0 0.0 16.290000149 0.0 0.0 0.0 29.1751946751" Properties=species:S:1:pos:R:3:initial_magmoms:R:1 pbc="T T T"
Si      -1.32933878       1.40901985      -1.31133748       0.00000000
Si       1.33554560       1.37718919       1.34424709       0.00000000
Si      -1.38519719      -1.33164235       1.36665364       0.00000000
Si       1.34894250      -1.33402069      -1.40020512       0.00000000
Si      -2.71812646       0.06385680      -2.58816069       0.00000000
Si       2.64610543      -2.68322366       0.02838746       0.00000000
Si       2.67863656       0.01962945       2.70772064       0.00000000
Si       2.66690776       2.73473265      -0.03830703       0.00000000
Si      -0.05262631       2.73847934       2.66702125       0.00000000
Si      -2.75259610      -2.68050323       0.02739551       0.00000000
