10
Lattice="16.290000149 0.0 0.0 0.0 16.290000149 0.0 0.0 0.0 29.1751946751" Properties=species:S:1:pos:R:3:initial_magmoms:R:1 pbc="T T T"
Si      -1.30631140      -1.31393512      -1.44662285       0.00000000
Si      -1.32343219       1.39440772       1.36455303       0.00000000
Si       1.26087859      -1.39183390       1.43075155       0.00000000
Si       1.36666585       1.35905842      -1.37692331       0.00000000
Si      -2.66126474      -2.66906765      -0.11311223       0.00000000
Si       2.66048282       0.02491230       2.68837749       0.00000000
Si       2.69071706      -2.67384062       0.01873047       0.00000000
Si      -2.67121793       2.72798858      -0.04212898       0.00000000
Si       0.07615575       2.76501576       2.67863297       0.00000000
Si      -2.68100822       0.03257348      -2.78275924       0.00000000
