10
Lattice="16.290000149 0.0 0.0 0.0 16.290000149 0.0 0.0 0.0 29.1751946751" Properties=species:S:1:pos:R:3:initial_magmoms:R:1 pbc="T T T"
Si       1.83040958       1.02584647      -0.94068121       0.00000000
Si       1.40776552      -1.36464589       1.25228396       0.00000000
Si      -1.32061402       1.48881327       1.20717036       0.00000000
Si      -1.30448692      -1.18262143      -1.55372062       0.00000000
Si       0.99046459       2.27716120      -2.64885677       0.00000000
Si      -2.67144599       0.09479151       2.51774928       0.00000000
Si      -2.60495021      -2.58504383      -0.19013766       0.00000000
Si       0.05771547      -2.70286940       2.57484514       0.00000000
Si       2.74528857      -2.52079607      -0.30348329       0.00000000
Si       2.82927981       0.09648567       2.47556195       0.00000000
