10
Lattice="16.290000149 0.0 0.0 0.0 16.290000149 0.0 0.0 0.0 29.1751946751" Properties=species:S:1:pos:R:3:initial_magmoms:R:1 pbc="T T T"
Si       1.35178168       1.35307999       1.36093531       0.00000000
Si       1.38817191      -1.36129015      -1.32277415       0.00000000
Si      -1.33845157      -1.35710362       1.38057021       0.00000000
Si      -1.34530966       1.38067525      -1.35422501       0.00000000
Si      -2.68804550       2.71160084       0.03343477       0.00000000
Si       0.05262631      -2.73847934      -2.66702125       0.00000000
Si      -2.70143588       0.03020166      -2.70786652       0.00000000
Si       2.69065190      -0.00594585       2.72379617       0.00000000
Si       2.71068860       2.70498710      -0.00119618       0.00000000
Si      -2.69733080      -2.72266175       0.04986041       0.00000000
