10
Lattice="16.290000149 0.0 0.0 0.0 16.290000149 0.0 0.0 0.0 29.1751946751" Properties=species:S:1:pos:R:3:initial_magmoms:R:1 pbc="T T T"
Si      -1.42218217       1.22372110      -1.36965869       0.00000000
Si      -1.29949078      -1.50332266       1.26194387       0.00000000
Si       1.50511456      -1.33841899      -1.24111278       0.00000000
Si       0.66303559       1.88125067       1.29050639       0.00000000
Si       0.04580748       2.60320718      -2.58489307       0.00000000
Si       0.25309773      -2.55355526       2.65430086       0.00000000
Si      -2.76082923       2.52512921       0.05738761       0.00000000
Si       0.06706593      -2.74708047      -2.55574705       0.00000000
Si      -2.70817994      -0.18917577      -2.68662698       0.00000000
Si      -0.98323183       3.54268407       1.19014372       0.00000000
