10
Lattice="16.290000149 0.0 0.0 0.0 16.290000149 0.0 0.0 0.0 29.1751946751" Properties=species:S:1:pos:R:3:initial_magmoms:R:1 pbc="T T T"
H       -0.88752808       0.84510892      -0.89171065       0.00000000
Si       1.05111226      -1.48033747      -1.46590766       0.00000000
Si      -1.37780821      -1.23111676       1.43746184       0.00000000
Si       1.86830012       1.31839858       0.65650023       0.00000000
Si       1.96182101       0.36458649      -2.63081483       0.00000000
Si       0.02604771       1.84503800      -2.95570980       0.00000000
H       -2.78104512       0.42743331      -2.13533250       0.00000000
Si       2.15844131       0.78923422       2.94134247       0.00000000
Si       0.02352276      -2.65505825       2.65803529       0.00000000
Si       2.55673181      -2.79412599      -0.17277550       0.00000000
