10
Lattice="16.290000149 0.0 0.0 0.0 16.290000149 0.0 0.0 0.0 29.1751946751" Properties=species:S:1:pos:R:3:initial_magmoms:R:1 pbc="T T T"
Si       1.34703640       1.33442794       1.38648986       0.00000000
Si       1.32815629      -1.43959618      -1.31477431       0.00000000
Si      -1.34131861      -1.41806080       1.35903600       0.00000000
Si      -1.42596145       1.36537894      -1.33592633       0.00000000
H        0.49190913       1.65012815      -3.24971115       0.00000000
Si      -2.76348450       2.52152912       0.21984093       0.00000000
Si       2.65100204       2.68584635      -0.04930900       0.00000000
Si      -2.73421137      -0.07983729      -2.70533119       0.00000000
Si       2.69474069      -0.05082480       2.74841712       0.00000000
Si      -0.06330294      -2.76148083      -2.68339145       0.00000000
