10
Lattice="16.290000149 0.0 0.0 0.0 16.290000149 0.0 0.0 0.0 29.1751946751" Properties=species:S:1:pos:R:3:initial_magmoms:R:1 pbc="T T T"
Si      -1.21165021      -0.34687926      -0.87458481       0.00000000
H        1.38890170      -2.01451916       0.47905670       0.00000000
Si      -0.35297172       1.15167043      -2.49077390       0.00000000
Si       0.04737132       2.98090713      -0.99099384       0.00000000
Si      -1.97886361      -2.46584990       0.30245924       0.00000000
Si       2.00274149       1.17322210       2.21276346       0.00000000
Si      -1.46173429      -1.56444274       2.39793843       0.00000000
Si       0.59320036      -0.55882846       3.13149035       0.00000000
Si      -0.66412702      -2.72965016      -1.60898281       0.00000000
H        3.11920923       0.65001988      -0.71307093       0.00000000
