10
Lattice="16.290000149 0.0 0.0 0.0 16.290000149 0.0 0.0 0.0 29.1751946751" Properties=species:S:1:pos:R:3:initial_magmoms:R:1 pbc="T T T"
Si       1.29906235       1.28284875       1.50576389       0.00000000
Si      -1.33815835      -1.36433003       1.40622104       0.00000000
Si       1.47908314      -1.29917003      -1.34065855       0.00000000
Si      -1.35516511       1.38506036      -1.40160553       0.00000000
Si      -0.00535941      -2.55977169      -2.71370156       0.00000000
Si      -2.60824079       2.72691980       0.08568492       0.00000000
Si       2.69646743      -2.71260447       0.11193209       0.00000000
Si       2.28654587       3.07050848       0.35267851       0.00000000
Si       2.37071630       2.37873733      -1.87771553       0.00000000
Si       3.09938430       0.18769973      -2.27703642       0.00000000
