10
Lattice="16.290000149 0.0 0.0 0.0 16.290000149 0.0 0.0 0.0 29.1751946751" Properties=species:S:1:pos:R:3:initial_magmoms:R:1 pbc="T T T"
H       -1.02123640       1.13602714       0.01044472       0.00000000
Si      -0.87884551      -1.89274489       1.04914000       0.00000000
Si       0.29693412      -0.75140232      -2.20188112       0.00000000
Si       1.88287641       0.87626843       1.11641800       0.00000000
Si       2.57604361      -1.17854241      -2.13442807       0.00000000
Si      -2.38783709      -2.71848500      -0.56567785       0.00000000
Si       0.95159665       1.69092482       3.11351843       0.00000000
H        0.18116109       3.25846267      -1.71815639       0.00000000
Si       0.89037883      -3.05078471       2.04684413       0.00000000
Si      -2.88134265       0.52373165       2.40441532       0.00000000
