10
Lattice="16.290000149 0.0 0.0 0.0 16.290000149 0.0 0.0 0.0 29.1751946751" Properties=species:S:1:pos:R:3:initial_magmoms:R:1 pbc="T T T"
Si      -1.28599777      -1.41289687      -1.31696829       0.00000000
Si       1.42218217      -1.22372110       1.36965869       0.00000000
Si      -1.33864705       1.30140811       1.42704630       0.00000000
Si       1.46798965       1.37948608      -1.21523438       0.00000000
Si       2.08521776       0.65752957       2.66016508       0.00000000
Si       0.43895034       2.31896297       2.55980241       0.00000000
Si      -2.60864804      -0.03883536      -2.65097489       0.00000000
Si       0.12042383       2.73201221      -2.60000582       0.00000000
Si      -2.60307686      -2.74090656       0.12457808       0.00000000
Si       0.12269139      -2.72704376       2.63160256       0.00000000
