10
Lattice="16.290000149 0.0 0.0 0.0 16.290000149 0.0 0.0 0.0 29.1751946751" Properties=species:S:1:pos:R:3:initial_magmoms:R:1 pbc="T T T"
H        1.21814992      -1.97286563       0.22272344       0.00000000
H       -1.98145046      -0.62130061      -1.07939468       0.00000000
Si       1.87243778       0.69633235       1.28481722       0.00000000
Si      -0.75805516      -1.87108571       1.28397114       0.00000000
Si       0.63325747      -0.33171327      -2.32905579       0.00000000
Si      -1.77515390       1.55126413       0.63537739       0.00000000
H       -2.63057438      -0.19564290      -1.11991902       0.00000000
H       -0.43279272       2.16106400      -2.20634492       0.00000000
H        2.84835540       0.41466195      -1.22600003       0.00000000
H        2.33522039       1.98303059       0.64217521       0.00000000
