10
Lattice="16.290000149 0.0 0.0 0.0 16.290000149 0.0 0.0 0.0 29.1751946751" Properties=species:S:1:pos:R:3:initial_magmoms:R:1 pbc="T T T"
Si       1.34019460      -1.35944938      -1.33974099       0.00000000
Si       1.30448692       1.18262143       1.55372062       0.00000000
Si      -1.30046329      -1.40242240       1.36358295       0.00000000
Si      -1.21738429       1.41343444      -1.45259064       0.00000000
Si      -0.15470613      -2.64793952      -2.62461656       0.00000000
Si       0.40291686       2.90030421      -2.38896851       0.00000000
Si      -2.70410744      -0.04714326       2.66676596       0.00000000
Si      -2.70093089      -2.71000442       0.03207463       0.00000000
Si      -2.69646743       2.71260447      -0.11193209       0.00000000
Si      -0.01612710       2.67143471       2.76089098       0.00000000
