10
Lattice="16.290000149 0.0 0.0 0.0 16.290000149 0.0 0.0 0.0 29.1751946751" Properties=species:S:1:pos:R:3:initial_magmoms:R:1 pbc="T T T"
Si       1.33051834      -1.41891603      -1.28624681       0.00000000
Si      -1.34863282      -1.37300429       1.33753680       0.00000000
Si       1.38557854       1.35034327       1.32443714       0.00000000
Si      -1.30025152       1.34902378      -1.41841044       0.00000000
Si       2.66398517      -0.07866441      -2.61496103       0.00000000
Si       0.01523115       2.69549003       2.66401620       0.00000000
Si      -2.67659363       2.69671178      -0.06520656       0.00000000
Si      -2.70857090      -0.01619226       2.67723256       0.00000000
Si      -2.72771165      -0.05548374      -2.66145170       0.00000000
Si       0.03402981      -2.73250092       2.65914394       0.00000000
