10
Lattice="16.290000149 0.0 0.0 0.0 16.290000149 0.0 0.0 0.0 29.1751946751" Properties=species:S:1:pos:R:3:initial_magmoms:R:1 pbc="T T T"
H        0.64270567      -0.84279574       1.07948220       0.00000000
Si      -1.43205391       1.22622976       1.28540073       0.00000000
Si      -1.43896087      -1.32928030      -1.21158748       0.00000000
Si       1.50125383       1.36086661      -1.16169790       0.00000000
Si       0.05370813       2.23990760       2.75472188       0.00000000
Si       0.08114049      -2.64752576      -2.40785799       0.00000000
Si       1.06354153      -3.50866567      -0.42137734       0.00000000
Si       0.15876234       2.70767495      -2.54439790       0.00000000
Si       2.78897835      -0.59062654       2.38906917       0.00000000
Si      -2.68167611       0.05949108      -2.58258823       0.00000000
