10
Lattice="16.290000149 0.0 0.0 0.0 16.290000149 0.0 0.0 0.0 29.1751946751" Properties=species:S:1:pos:R:3:initial_magmoms:R:1 pbc="T T T"
Si      -0.08417043       0.69177115       2.23039404       0.00000000
Si       0.72866800      -2.19103760      -0.39932089       0.00000000
Si       1.93921049       1.02771982      -0.90256382       0.00000000
Si      -2.20320623       0.37867734      -0.80581888       0.00000000
H        2.44170812      -0.24392646       1.50307685       0.00000000
Si       2.62070264      -1.63155917       0.89451147       0.00000000
Si      -2.15378237       2.66991473      -0.13680249       0.00000000
Si       1.45785727      -1.84663605      -2.66308259       0.00000000
Si       1.01217916       2.07006806      -2.73666244       0.00000000
Si       0.24159699       0.02598255      -3.61690723       0.00000000
