10
Lattice="16.290000149 0.0 0.0 0.0 16.290000149 0.0 0.0 0.0 29.1751946751" Properties=species:S:1:pos:R:3:initial_magmoms:R:1 pbc="T T T"
Si       0.53246309      -0.68237182       2.22980178       0.00000000
Si      -2.01106568       1.36238158       0.08489982       0.00000000
Si       1.13430855       2.06257466      -0.60882796       0.00000000
Si      -1.22023504      -1.58454460      -1.41660158       0.00000000
Si       2.19686942      -1.40854744      -1.05194082       0.00000000
H       -1.03514806       1.08071119      -2.42591744       0.00000000
H       -1.54828306       2.64907982      -0.55774220       0.00000000
H       -2.66535353      -1.30681639      -0.97719397       0.00000000
Si      -0.00356751       2.18626463      -2.64324346       0.00000000
H        3.40851963      -1.06166818      -0.17735601       0.00000000
