10
Lattice="16.290000149 0.0 0.0 0.0 16.290000149 0.0 0.0 0.0 29.1751946751" Properties=species:S:1:pos:R:3:initial_magmoms:R:1 pbc="T T T"
Si       1.34019460       1.36290286       1.36484478       0.00000000
Si      -1.35078310       1.35918874      -1.35965160       0.00000000
Si      -1.35890693      -1.35190711       1.36213149       0.00000000
Si       1.36891387      -1.35384562      -1.35119079       0.00000000
Si      -2.68137322       2.70845687       0.03115911       0.00000000
Si       2.70705593       0.00540828       2.69260789       0.00000000
Si       0.00884547      -2.70873380      -2.70413209       0.00000000
Si       2.70884783       2.70668126       0.02223150       0.00000000
Si      -2.71068860      -2.70498710       0.00119618       0.00000000
Si       2.71722089      -2.71448417       0.01403327       0.00000000
