10
Lattice="16.290000149 0.0 0.0 0.0 16.290000149 0.0 0.0 0.0 29.1751946751" Properties=species:S:1:pos:R:3:initial_magmoms:R:1 pbc="T T T"
Si       1.36686133      -1.35749458       1.32776311       0.00000000
Si       1.36865323       1.34377840      -1.34261328       0.00000000
Si      -1.34019460      -1.36290286      -1.36484478       0.00000000
Si      -1.31826826       1.36246303       1.39101493       0.00000000
Si      -0.01369989       2.68947902      -2.67839957       0.00000000
Si      -0.00904095      -2.68778486       2.68277585       0.00000000
Si       2.71554302       0.00413766       2.67559875       0.00000000
Si      -2.69910153      -2.71480997      -0.00271329       0.00000000
Si      -2.69097770      -0.00371412      -2.72449638       0.00000000
Si       2.71942004      -0.02107926      -2.69742180       0.00000000
