10
Lattice="16.290000149 0.0 0.0 0.0 16.290000149 0.0 0.0 0.0 29.1751946751" Properties=species:S:1:pos:R:3:initial_magmoms:R:1 pbc="T T T"
H        0.93397087      -0.72889606       1.22950105       0.00000000
Si       1.55313748       1.36868581      -0.99583692       0.00000000
Si      -1.14763051       1.03307923       1.72431236       0.00000000
Si       0.11611838      -2.09243423      -1.06229801       0.00000000
H       -2.56647323      -1.50592906      -1.01121225       0.00000000
Si       2.00137313      -1.61671735       2.02467098       0.00000000
Si       2.43770078      -2.23576994      -1.62181990       0.00000000
Si       2.91152802      -0.03500721      -2.27324364       0.00000000
Si      -2.22223295      -0.66691261       2.89292478       0.00000000
Si      -2.91685485       2.19111905       0.72660822       0.00000000
