10
Lattice="16.290000149 0.0 0.0 0.0 16.290000149 0.0 0.0 0.0 29.1751946751" Properties=species:S:1:pos:R:3:initial_magmoms:R:1 pbc="T T T"
Si      -1.23763276       1.36575361       1.41814786       0.00000000
Si       1.32265027      -1.37406151       1.33400660       0.00000000
Si       1.34963829       1.41046966      -1.30488976       0.00000000
Si      -1.38771253      -1.35873262      -1.33006795       0.00000000
H       -1.88268419       0.53888949       2.49576285       0.00000000
Si       2.60864804       0.03883536       2.65097489       0.00000000
Si      -2.81637813       2.45210114       0.09665742       0.00000000
Si      -0.08915517       2.76009618      -2.59125327       0.00000000
Si       2.68846579       0.04742019      -2.67717421       0.00000000
Si      -0.00410508      -2.70239699      -2.66562084       0.00000000
