10
Lattice="16.28999089631971 0.0 0.0 0.0 16.28999089631971 0.0 0.0 0.0 34.33025523377368" Properties=species:S:1:pos:R:3:initial_magmoms:R:1 pbc="T T T"
Si      -1.54632240       1.76083497      -0.15517284       0.00000000
Si       0.96226333      -0.00462636       2.15425905       0.00000000
Si      -1.13923530      -2.10129597      -0.07260853       0.00000000
Si       1.54378375       0.76284441      -1.67531739       0.00000000
Si      -0.12756047       3.64722416      -0.24566744       0.00000000
Si       2.27346172      -1.99093122       2.07663830       0.00000000
Si      -0.34817757      -2.82584259      -2.37311455       0.00000000
Si      -3.29295249       1.38789171       1.44163121       0.00000000
Si       2.34917764       1.85075577       2.45197119       0.00000000
Si       0.95705705       3.08141055      -2.17726033       0.00000000
