10
Lattice="16.28999089631971 0.0 0.0 0.0 16.28999089631971 0.0 0.0 0.0 34.33025523377368" Properties=species:S:1:pos:R:3:initial_magmoms:R:1 pbc="T T T"
Si       1.89675873       1.09518714       0.79495183       0.00000000
Si      -0.16578333      -0.04953789      -2.34716086       0.00000000
Si      -1.61213008       1.60915619       0.71554591       0.00000000
Si       0.32211846      -2.21578209       0.86282279       0.00000000
Si       1.03708656       1.80927233       2.88875527       0.00000000
Si      -1.77037277       2.87517590      -1.24392316       0.00000000
Si      -1.55269764      -1.90492002      -2.64487300       0.00000000
Si      -3.09254082      -1.63584180       1.59289040       0.00000000
Si       2.43701658      -2.30654997       1.88510970       0.00000000
Si       2.11734162       3.20364746      -0.29551500       0.00000000
