10
Lattice="16.28999089631971 0.0 0.0 0.0 16.28999089631971 0.0 0.0 0.0 34.33025523377368" Properties=species:S:1:pos:R:3:initial_magmoms:R:1 pbc="T T T"
Si      -1.08478368      -1.16817219      -1.68685236       0.00000000
Si       1.86399954      -1.38344454       0.54708725       0.00000000
Si      -1.52065521       0.07082892       1.88929799       0.00000000
Si       1.30492674       1.78934247      -1.04820627       0.00000000
Si       1.64660949       2.84910471       1.01277743       0.00000000
Si      -3.00477195       0.24379614      -2.14965879       0.00000000
Si       1.73833848       1.41915222       2.96441920       0.00000000
Si       3.02863680      -0.44144271       2.32220275       0.00000000
Si      -0.46804428       1.21617882       3.66242234       0.00000000
Si       3.42049275      -1.39157325      -1.24141705       0.00000000
