10
Lattice="16.28999089631971 0.0 0.0 0.0 16.28999089631971 0.0 0.0 0.0 34.33025523377368" Properties=species:S:1:pos:R:3:initial_magmoms:R:1 pbc="T T T"
Si      -0.42258542      -2.02012290       1.24677258       0.00000000
Si       1.33878453      -1.34220315      -1.56192450       0.00000000
Si      -1.36714478       1.33885881      -1.56429328       0.00000000
Si       1.41511621       1.41296202       1.46631468       0.00000000
Si       1.50735345      -1.61133838       2.91577320       0.00000000
Si      -2.71996412       2.70277164      -0.22403937       0.00000000
Si       2.86640534      -2.56332403      -0.20975798       0.00000000
Si       2.70642125       2.88712557       0.03010765       0.00000000
Si       2.68861628      -0.00293220      -2.93688632       0.00000000
Si      -0.02113704       2.70961344      -2.93530712       0.00000000
