10
Lattice="16.28999089631971 0.0 0.0 0.0 16.28999089631971 0.0 0.0 0.0 34.33025523377368" Properties=species:S:1:pos:R:3:initial_magmoms:R:1 pbc="T T T"
Si      -0.00635310      -1.72768482      -1.60874210       0.00000000
Si       1.01320542      -1.58781888       1.51179543       0.00000000
Si       1.23282720       1.52632413      -1.47200462       0.00000000
Si      -1.69790670       1.11149928       1.48782260       0.00000000
Si       2.35568061      -0.25466157       2.87803393       0.00000000
Si       2.37089547      -2.89883808       0.07531719       0.00000000
Si       2.53974132       2.75617026       0.06680328       0.00000000
Si      -0.35484507       2.45972484       2.87772495       0.00000000
Si      -1.99031220      -1.76839353      -2.84432301       0.00000000
Si      -2.92159521       2.65922847       0.14777810       0.00000000
