10
Lattice="16.28999089631971 0.0 0.0 0.0 16.28999089631971 0.0 0.0 0.0 34.33025523377368" Properties=species:S:1:pos:R:3:initial_magmoms:R:1 pbc="T T T"
Si      -1.60776436      -0.20932650      -1.72681280       0.00000000
Si      -0.73561568       0.91891890       2.07406353       0.00000000
Si       0.86897376      -2.00579489       0.97082583       0.00000000
Si       1.66798197       1.42035768      -1.01648510       0.00000000
Si       1.26832311       3.27702672       0.55309505       0.00000000
Si       3.58797024       0.00838935      -0.55367867       0.00000000
Si       2.93462721      -2.22241931      -0.08781684       0.00000000
Si       1.04576913       2.38519809       2.69434293       0.00000000
Si      -0.52314683      -0.77514010      -3.65840569       0.00000000
Si      -2.92205852       1.75728375       1.91610994       0.00000000
