10
Lattice="16.28999089631971 0.0 0.0 0.0 16.28999089631971 0.0 0.0 0.0 34.33025523377368" Properties=species:S:1:pos:R:3:initial_magmoms:R:1 pbc="T T T"
Si      -0.99254970       2.08073799      -0.27028225       0.00000000
Si       2.20638276       0.20297340      -0.69800314       0.00000000
Si      -0.43196193      -1.08569592       2.04069450       0.00000000
Si      -1.05261093      -1.14534990      -1.77312434       0.00000000
Si      -3.25671309       1.23066063       0.14576635       0.00000000
Si      -1.27319382      -3.25381021      -0.68265751       0.00000000
Si      -0.00931788       2.74284504      -2.32532681       0.00000000
Si      -2.13286599      -2.53972503       1.41114593       0.00000000
Si       3.29532039       1.30266243       1.05009443       0.00000000
Si       2.11465377       1.63292589      -2.64964491       0.00000000
