10
Lattice="16.28999089631971 0.0 0.0 0.0 16.28999089631971 0.0 0.0 0.0 34.33025523377368" Properties=species:S:1:pos:R:3:initial_magmoms:R:1 pbc="T T T"
Si      -1.39217598      -1.66242708       0.82135182       0.00000000
Si       0.99929376      -0.20621511       2.08498056       0.00000000
Si       1.53960048      -1.04958099      -1.45721716       0.00000000
Si      -0.98722287       2.15691003      -0.33822186       0.00000000
Si       1.52894682       2.10595491       1.91429043       0.00000000
Si       3.42969660      -0.43005600      -0.22836499       0.00000000
Si       3.06281322       1.84868694       0.02821949       0.00000000
Si      -2.92104135      -2.00111247      -0.92269479       0.00000000
Si      -2.39249601      -0.85032171       2.76351843       0.00000000
Si      -2.79466353       1.84003695      -1.80422757       0.00000000
