10
Lattice="16.28999089631971 0.0 0.0 0.0 16.28999089631971 0.0 0.0 0.0 34.33025523377368" Properties=species:S:1:pos:R:3:initial_magmoms:R:1 pbc="T T T"
Si      -1.35288450       1.35666378      -1.35789967       0.00000000
Si       1.36202319      -1.35646830      -1.35735039       0.00000000
Si      -1.35348723      -1.35146727       1.37602606       0.00000000
Si       1.36891386       1.36156707       1.36047444       0.00000000
Si      -2.71199178       2.71384884       0.00322705       0.00000000
Si      -2.70985779      -2.71599912       0.00123589       0.00000000
Si      -2.71166598      -0.00083079      -2.71494109       0.00000000
Si       2.71474479      -2.71461447       0.00260910       0.00000000
Si       0.00316026       2.71441899      -2.71500975       0.00000000
Si       2.71521720       2.71489140       0.00068661       0.00000000
