10
Lattice="16.28999089631971 0.0 0.0 0.0 16.28999089631971 0.0 0.0 0.0 34.33025523377368" Properties=species:S:1:pos:R:3:initial_magmoms:R:1 pbc="T T T"
Si      -0.15824269       1.26601970      -1.95946907       0.00000000
Si      -1.87786300      -0.97284532       1.02448405       0.00000000
Si       1.61213008      -1.60915619      -0.71554591       0.00000000
Si       0.86353942       1.60387430       1.56546051       0.00000000
Si       2.64921664       0.20011613       2.17320936       0.00000000
Si       1.62314212       2.73229889      -1.33918967       0.00000000
Si       3.50888881      -0.51396905       0.07940592       0.00000000
Si      -1.01609527       1.74066143       2.98611593       0.00000000
Si      -1.48041075      -3.24499799       0.87734449       0.00000000
Si       1.44634675      -1.65869408      -3.06270677       0.00000000
