10
Lattice="16.28999089631971 0.0 0.0 0.0 16.28999089631971 0.0 0.0 0.0 34.33025523377368" Properties=species:S:1:pos:R:3:initial_magmoms:R:1 pbc="T T T"
Si      -1.23165432       0.82513737       1.81971053       0.00000000
Si      -1.80744066      -0.31687308      -1.46600571       0.00000000
Si       0.98722287      -2.15691003       0.33822186       0.00000000
Si       1.48740732       1.75873356      -0.74404004       0.00000000
Si      -0.31996818      -0.26205723      -3.32502440       0.00000000
Si       2.51616969      -0.05095512       2.25251230       0.00000000
Si       0.54892413       1.77277554       2.94392402       0.00000000
Si       3.31677432       0.55873071      -1.68822557       0.00000000
Si       1.62088758       3.22167330       1.19095155       0.00000000
Si       1.98651663      -2.36312514       2.42320242       0.00000000
