10
Lattice="16.28999089631971 0.0 0.0 0.0 16.28999089631971 0.0 0.0 0.0 34.33025523377368" Properties=species:S:1:pos:R:3:initial_magmoms:R:1 pbc="T T T"
Si       1.35744570       1.35681691      -1.35735039       0.00000000
Si      -1.35801585      -1.35786272      -1.35728173       0.00000000
Si      -1.35928647       1.35544855       1.35903257       0.00000000
Si       1.35923760      -1.35892876       1.36006248       0.00000000
Si      -2.71331127       2.71563097       0.00034330       0.00000000
Si       2.71417464      -0.00032906      -2.71490676       0.00000000
Si      -2.71420722      -2.71531561      -0.00072094       0.00000000
Si      -0.00037467      -2.71531561      -2.71428882       0.00000000
Si       2.71474479      -2.71495723       0.00013732       0.00000000
Si      -0.00128691       2.71579387      -2.71487243       0.00000000
