10
Lattice="16.28999089631971 0.0 0.0 0.0 16.28999089631971 0.0 0.0 0.0 34.33025523377368" Properties=species:S:1:pos:R:3:initial_magmoms:R:1 pbc="T T T"
Si       0.98551242       1.57089552       1.48093938       0.00000000
Si      -0.75971673      -2.12272255       0.78527070       0.00000000
Si      -2.01280869       1.23592751      -0.75155837       0.00000000
Si       1.41152850       0.22637105      -2.22504808       0.00000000
Si      -0.57098079       1.57902423       3.26944368       0.00000000
Si      -0.89516808       3.12312075      -1.77964710       0.00000000
Si       0.56669652       3.66961767       0.33427388       0.00000000
Si       1.00594008      -3.11491387       1.99960116       0.00000000
Si      -2.40432255      -1.72298224       2.45976416       0.00000000
Si      -1.54772919      -3.03077602      -1.81998517       0.00000000
