10
Lattice="16.28999089631971 0.0 0.0 0.0 16.28999089631971 0.0 0.0 0.0 34.33025523377368" Properties=species:S:1:pos:R:3:initial_magmoms:R:1 pbc="T T T"
Si      -2.00121021      -1.23009048       0.27824687       0.00000000
Si       1.67469345      -1.44937017      -0.83092996       0.00000000
Si      -0.17427042       0.50241618       2.31022149       0.00000000
Si       0.31972383       2.10769794      -1.07467491       0.00000000
Si      -3.29150853       0.63050445       0.92046332       0.00000000
Si       2.02308768       3.15983646       0.15455490       0.00000000
Si      -1.46639322      -2.86742281       1.94498170       0.00000000
Si       0.76313763      -2.31309203      -2.91560155       0.00000000
Si      -2.20257090       1.73019348       2.66856089       0.00000000
Si       3.66533145      -0.20792556      -1.26101964       0.00000000
