10
Lattice="16.28999089631971 0.0 0.0 0.0 16.28999089631971 0.0 0.0 0.0 34.33025523377368" Properties=species:S:1:pos:R:3:initial_magmoms:R:1 pbc="T T T"
Si      -0.34168275      -1.05976224      -2.06098369       0.00000000
Si       1.84713939       1.52655219      -0.14068546       0.00000000
Si      -2.12397165       1.10991915       0.32431810       0.00000000
Si       0.09172899      -1.42995249       1.95164177       0.00000000
Si       1.68401133       0.90850959      -2.85926557       0.00000000
Si      -1.64660949      -2.84910471      -1.01277743       0.00000000
Si       1.01454120       2.88956907       1.61860378       0.00000000
Si      -1.14991110       3.23767008       0.70644839       0.00000000
Si      -0.88712082       0.82624509      -3.47315953       0.00000000
Si       3.70296135       0.04724100      -0.04349646       0.00000000
