10
Lattice="16.28999089631971 0.0 0.0 0.0 16.28999089631971 0.0 0.0 0.0 34.33025523377368" Properties=species:S:1:pos:R:3:initial_magmoms:R:1 pbc="T T T"
Si       1.16382276       1.05635763       1.72032438       0.00000000
Si       0.84189978      -2.20056723       0.04751310       0.00000000
Si       0.67577436       1.01926530      -2.03362247       0.00000000
Si      -2.47291974       0.23556969       0.08352556       0.00000000
Si      -0.66554424       2.25636048       2.66450992       0.00000000
Si       0.37387179      -2.70886410       2.28955466       0.00000000
Si      -1.48867794       1.36736631      -2.94577786       0.00000000
Si      -2.60405424       2.34012366      -1.10265408       0.00000000
Si      -0.24703785      -3.30025626      -1.70058447       0.00000000
Si       3.49189182       1.22189661       1.00186040       0.00000000
