10
Lattice="16.28999089631971 0.0 0.0 0.0 16.28999089631971 0.0 0.0 0.0 34.33025523377368" Properties=species:S:1:pos:R:3:initial_magmoms:R:1 pbc="T T T"
Si       0.31866498      -2.27587590       0.11133308       0.00000000
Si       1.89009612       0.61952499       1.22885217       0.00000000
Si       0.46802799       0.50829687      -2.24204156       0.00000000
Si      -1.53960048       1.04958099       1.45721716       0.00000000
Si      -0.37387179       2.70886410      -2.28955466       0.00000000
Si       1.52321274       2.89826793       1.48543664       0.00000000
Si       2.49632847      -0.71948043      -2.60038097       0.00000000
Si      -0.54030672       0.84336588       3.54219771       0.00000000
Si       2.19594087      -2.69495244      -1.32940555       0.00000000
Si      -2.93177646      -0.61284609       2.27856897       0.00000000
