10
Lattice="16.28999089631971 0.0 0.0 0.0 16.28999089631971 0.0 0.0 0.0 34.33025523377368" Properties=species:S:1:pos:R:3:initial_magmoms:R:1 pbc="T T T"
Si      -2.19437703       0.80925462      -0.04692949       0.00000000
Si       0.83838114      -2.22711993      -0.20749218       0.00000000
Si       0.23602581       0.58541373      -2.36027503       0.00000000
Si       0.59715882       0.04965192       2.37053433       0.00000000
Si      -1.66472397       3.12142464      -0.21761961       0.00000000
Si      -0.13085757       2.86415667      -2.10369056       0.00000000
Si       1.86834897      -1.95023880       2.40853382       0.00000000
Si      -1.15755111      -3.27132522      -1.39301955       0.00000000
Si       2.64725532      -2.02378815      -1.84130427       0.00000000
Si       2.40727104       0.01273878      -2.97272712       0.00000000
