10
Lattice="16.28999089631971 0.0 0.0 0.0 16.28999089631971 0.0 0.0 0.0 34.33025523377368" Properties=species:S:1:pos:R:3:initial_magmoms:R:1 pbc="T T T"
Si      -1.35272160       1.35814617      -1.35995949       0.00000000
Si       1.35055503       1.36420605       1.36459408       0.00000000
Si       1.36137159      -1.35990549      -1.35896391       0.00000000
Si      -1.36599795      -1.33514469       1.37997404       0.00000000
Si       0.18277380      -2.50616763       2.72300871       0.00000000
Si      -2.71474479       2.71461447      -0.00260910       0.00000000
Si      -2.71215468      -0.00052128      -2.71761885       0.00000000
Si       0.00272043       2.71438641      -2.71799649       0.00000000
Si       2.71920825       2.71427238      -0.00212848       0.00000000
Si      -2.71655298      -2.71709055       0.00089259       0.00000000
