10
Lattice="16.28999089631971 0.0 0.0 0.0 16.28999089631971 0.0 0.0 0.0 34.33025523377368" Properties=species:S:1:pos:R:3:initial_magmoms:R:1 pbc="T T T"
Si      -0.00871515       1.87248663       1.38165622       0.00000000
Si      -0.42394725       0.53978544      -2.31561134       0.00000000
Si       2.17689786      -1.00629520      -0.31336674       0.00000000
Si      -1.85293048      -1.26733594       0.98054130       0.00000000
Si       1.72501326       3.19883472       0.45748524       0.00000000
Si      -1.35940050      -3.46585130      -0.01029908       0.00000000
Si       0.32120622      -1.34930722      -3.52451762       0.00000000
Si       2.53244340      -2.29043006       1.73893139       0.00000000
Si      -1.70421093      -0.44949323       3.47996521       0.00000000
Si       2.72533329       2.38672935      -1.48468138       0.00000000
