10
Lattice="16.28999089631971 0.0 0.0 0.0 16.28999089631971 0.0 0.0 0.0 34.33025523377368" Properties=species:S:1:pos:R:3:initial_magmoms:R:1 pbc="T T T"
Si       0.60372369       2.04551901      -0.93330284       0.00000000
Si       1.36800162      -1.51843977      -1.17907327       0.00000000
Si       0.60033537      -0.37416501       2.31605763       0.00000000
Si      -2.32806906      -0.16553898       0.71846398       0.00000000
Si      -1.59480729      -1.03249278       2.77313091       0.00000000
Si      -0.68250213       3.50723700       0.38374381       0.00000000
Si       2.81626407       2.50678665      -0.37001170       0.00000000
Si       1.39921326       1.61099955       3.15745833       0.00000000
Si      -3.49189182      -1.22189661      -1.00186040       0.00000000
Si       1.23730695      -3.72006585      -0.40382702       0.00000000
