10
Lattice="16.28999089631971 0.0 0.0 0.0 16.28999089631971 0.0 0.0 0.0 34.33025523377368" Properties=species:S:1:pos:R:3:initial_magmoms:R:1 pbc="T T T"
Si       1.45171593      -1.30782636      -1.29313561       0.00000000
Si       1.35883035       1.33898817       1.37250034       0.00000000
Si      -1.35842310      -1.37896479       1.36745379       0.00000000
Si      -1.29912750       1.42076723      -1.46083214       0.00000000
Si      -2.18217582      -0.24035895      -3.07263307       0.00000000
Si       2.69860140       2.68920926      -0.00615542       0.00000000
Si      -2.71984356       2.67873479      -0.00233103       0.00000000
Si       0.00314397       2.69168534       2.72415190       0.00000000
Si      -2.71702539      -2.71930599       0.00562673       0.00000000
Si      -2.71358820      -0.01922991       2.72888948       0.00000000
