10
Lattice="16.28999089631971 0.0 0.0 0.0 16.28999089631971 0.0 0.0 0.0 34.33025523377368" Properties=species:S:1:pos:R:3:initial_magmoms:R:1 pbc="T T T"
Si      -1.33211475      -1.36622601      -1.36261322       0.00000000
Si       1.35658233      -1.35281934       1.35686977       0.00000000
Si      -1.35778779       1.36045427       1.35786534       0.00000000
Si       1.35179307       1.37677266      -1.36690451       0.00000000
Si      -2.62221759       0.07284888      -2.66165364       0.00000000
Si      -0.21111840       2.57302246      -2.80177265       0.00000000
Si       2.71469592      -2.71228500      -0.00171651       0.00000000
Si       0.00000000      -2.71184517       2.71573069       0.00000000
Si      -2.71560816      -2.71275741       0.00254044       0.00000000
Si       2.71531494       0.00252495       2.71525006       0.00000000
