10
Lattice="16.28999089631971 0.0 0.0 0.0 16.28999089631971 0.0 0.0 0.0 34.33025523377368" Properties=species:S:1:pos:R:3:initial_magmoms:R:1 pbc="T T T"
Si      -1.76565681       0.99219132      -1.21433047       0.00000000
Si      -0.20357613       1.01204883       2.12456336       0.00000000
Si      -0.59241843      -2.19528927       0.65728743       0.00000000
Si       2.19054888       0.40187430      -0.89646646       0.00000000
Si      -0.34656975      -1.42614063      -2.92270791       0.00000000
Si       1.36495539       0.14859738      -3.11344692       0.00000000
Si       2.07254412       0.74800422       2.79757406       0.00000000
Si      -3.41026263       1.39193163       0.46016300       0.00000000
Si       0.08346996      -2.34722610       2.90866683       0.00000000
Si      -1.00594008       3.11491387      -1.99960116       0.00000000
