10
Lattice="16.28999089631971 0.0 0.0 0.0 16.28999089631971 0.0 0.0 0.0 34.33025523377368" Properties=species:S:1:pos:R:3:initial_magmoms:R:1 pbc="T T T"
Si       2.24125965      -0.31558617       0.59834235       0.00000000
Si      -0.08933436      -0.01773981      -2.35776892       0.00000000
Si      -0.60015618       1.99668159       1.14024573       0.00000000
Si      -1.97143209      -1.39994631       0.15932680       0.00000000
Si      -2.38777191      -0.42411015      -2.51448662       0.00000000
Si      -1.23367428      -2.78835930       1.87724807       0.00000000
Si       3.20922774       1.80138078       0.21181779       0.00000000
Si      -3.68305497       0.08066808       0.78060178       0.00000000
Si      -0.98437212       3.64871469      -0.47413542       0.00000000
Si      -2.69563662       1.69631028       2.17073758       0.00000000
