10
Lattice="16.28999089631971 0.0 0.0 0.0 16.28999089631971 0.0 0.0 0.0 34.33025523377368" Properties=species:S:1:pos:R:3:initial_magmoms:R:1 pbc="T T T"
Si      -1.35725022      -1.35686041       1.35741905       0.00000000
Si       1.35790182      -1.35764233      -1.35759070       0.00000000
Si      -1.35782037       1.35776777      -1.35762503       0.00000000
Si       1.35839052       1.35847638       1.35693843       0.00000000
Si       2.71063971       0.00226316       2.71652028       0.00000000
Si      -0.00083079      -2.71298662      -2.71597100       0.00000000
Si       2.71455120      -2.71451788      -0.00003433       0.00000000
Si       0.00219915      -2.71297033       2.71610832       0.00000000
Si       2.71405677       0.00133027      -2.71507841       0.00000000
Si      -2.71471221      -2.71468078      -0.00054928       0.00000000
