10
Lattice="16.28999089631971 0.0 0.0 0.0 16.28999089631971 0.0 0.0 0.0 34.33025523377368" Properties=species:S:1:pos:R:3:initial_magmoms:R:1 pbc="T T T"
Si       1.45376914      -1.80040338       0.26530436       0.00000000
Si       0.07120359       1.35360126       1.92201474       0.00000000
Si      -2.25429165      -0.74831373       0.23883572       0.00000000
Si       1.26479374       1.67573601      -1.28021026       0.00000000
Si      -0.59574159       3.17718531      -1.45762912       0.00000000
Si      -3.39325587       1.31206176       0.32878104       0.00000000
Si       0.03500721      -3.68679257       0.35579896       0.00000000
Si      -2.75165793      -1.76922432      -1.76564034       0.00000000
Si      -2.08836171       2.42921367       1.96832628       0.00000000
Si       2.53838666      -2.36621698      -1.66628853       0.00000000
