10
Lattice="16.28999089631971 0.0 0.0 0.0 16.28999089631971 0.0 0.0 0.0 34.33025523377368" Properties=species:S:1:pos:R:3:initial_magmoms:R:1 pbc="T T T"
Si       0.39745225      -2.27215268      -0.14713956       0.00000000
Si       1.87786300       0.97284532      -1.02448405       0.00000000
Si      -1.94528664      -0.04424364      -1.34457953       0.00000000
Si      -0.36492858       0.72422571       2.23047226       0.00000000
Si       0.86176773       2.71350675       1.96163188       0.00000000
Si      -1.15030206      -2.99433725       1.52014455       0.00000000
Si       2.74140242       2.57671962       0.54097646       0.00000000
Si      -1.72457343      -1.84545242      -2.91776435       0.00000000
Si       0.37366002      -2.90858669      -2.52104370       0.00000000
Si       3.48999308      -0.63631088      -1.74002996       0.00000000
