10
Lattice="16.28999089631971 0.0 0.0 0.0 16.28999089631971 0.0 0.0 0.0 34.33025523377368" Properties=species:S:1:pos:R:3:initial_magmoms:R:1 pbc="T T T"
Si       1.22669631       1.98928104      -0.26884038       0.00000000
Si       0.36492858      -0.72422571      -2.23047226       0.00000000
Si      -2.30884686       0.29131733       0.72769883       0.00000000
Si       0.91702830      -1.25033683       1.88826808       0.00000000
Si       1.70026616       2.43598542       1.98507946       0.00000000
Si      -0.29463723      -3.23316982       1.56082593       0.00000000
Si      -2.13649866       1.79314944       2.54706605       0.00000000
Si      -0.78537348      -3.71856295      -0.71032771       0.00000000
Si       0.06576273       3.52375017      -1.62656840       0.00000000
Si       0.76238083      -2.99637838      -2.37761182       0.00000000
