10
Lattice="16.28999089631971 0.0 0.0 0.0 16.28999089631971 0.0 0.0 0.0 34.33025523377368" Properties=species:S:1:pos:R:3:initial_magmoms:R:1 pbc="T T T"
Si      -1.35762489      -1.35658233      -1.35683544       0.00000000
Si      -1.35769005       1.35747828       1.35707575       0.00000000
Si       1.35726651      -1.35751086       1.35755637       0.00000000
Si       1.35817875       1.35891180      -1.35844896       0.00000000
Si      -0.00065160      -2.71204065       2.71518140       0.00000000
Si       2.71484253      -2.71311579       0.00082393       0.00000000
Si       2.71492398       0.00115659       2.71442614       0.00000000
Si      -2.71621089      -2.71339272      -0.00006866       0.00000000
Si       2.71528236       2.71489140       0.00006866       0.00000000
Si      -0.00123804       2.71479366       2.71566203       0.00000000
