10
Lattice="16.28999089631971 0.0 0.0 0.0 16.28999089631971 0.0 0.0 0.0 34.33025523377368" Properties=species:S:1:pos:R:3:initial_magmoms:R:1 pbc="T T T"
Si      -0.13069467      -2.20162608       0.77524626       0.00000000
Si       0.20766492      -0.47438109      -2.28928002       0.00000000
Si      -1.36800162       1.51843977       1.17907327       0.00000000
Si       2.30265666      -0.39187224       0.58196681       0.00000000
Si       2.01756537      -2.67139710       0.04095602       0.00000000
Si       2.01859164      -2.04421581      -2.23167382       0.00000000
Si      -0.76427793       3.56395878       0.24577043       0.00000000
Si      -1.98969318      -3.13180137      -0.13361343       0.00000000
Si      -0.76766625       1.14427476       3.49513091       0.00000000
Si      -0.42468030      -2.36547090       3.08316762       0.00000000
