10
Lattice="16.28999089631971 0.0 0.0 0.0 16.28999089631971 0.0 0.0 0.0 34.33025523377368" Properties=species:S:1:pos:R:3:initial_magmoms:R:1 pbc="T T T"
Si       0.38141406       0.10033011       2.27558224       0.00000000
Si      -0.28509129      -2.27952486      -0.54101079       0.00000000
Si       1.86923907       0.31915368      -1.41210718       0.00000000
Si      -2.30265666       0.39187224      -0.58196681       0.00000000
Si      -2.43335133      -1.80975384       0.19327944       0.00000000
Si      -0.28406502      -1.65234357      -2.81364063       0.00000000
Si      -2.09499174      -0.08250885      -2.87124683       0.00000000
Si       1.34790858       2.13263793       2.74031116       0.00000000
Si       2.67994025       2.49127857      -0.82969407       0.00000000
Si       2.16918359      -1.19589777       2.96009358       0.00000000
