10
Lattice="16.28999089631971 0.0 0.0 0.0 16.28999089631971 0.0 0.0 0.0 34.33025523377368" Properties=species:S:1:pos:R:3:initial_magmoms:R:1 pbc="T T T"
Si       1.09268174       1.96367805       0.71901327       0.00000000
Si       1.86277520      -1.44904437       0.02399686       0.00000000
Si      -1.78313598      -0.29126520       1.54163530       0.00000000
Si      -1.26284967      -1.69117893      -1.55303295       0.00000000
Si       1.47454052      -2.28889161       2.18889830       0.00000000
Si       0.59768566      -3.19262823      -1.37561410       0.00000000
Si       3.06995543       1.74356757      -0.63905806       0.00000000
Si       0.56604396       3.14815653      -1.95754658       0.00000000
Si      -3.31004655       1.45153674       1.10165851       0.00000000
Si      -0.22501377       3.87270315       0.34295944       0.00000000
