10
Lattice="16.28999089631971 0.0 0.0 0.0 16.28999089631971 0.0 0.0 0.0 34.33025523377368" Properties=species:S:1:pos:R:3:initial_magmoms:R:1 pbc="T T T"
Si      -2.23682877      -0.68592303      -0.26691788       0.00000000
Si       0.31977270      -0.56448108       2.28073178       0.00000000
Si       1.78416225      -0.73863747      -1.45543198       0.00000000
Si      -0.24775461       2.40930729      -0.37801065       0.00000000
Si      -3.29704713       1.19508327       0.64166716       0.00000000
Si       2.53231308      -0.10321344       2.84402292       0.00000000
Si      -2.52387486       2.67335190      -1.05102135       0.00000000
Si      -0.96645312       0.89723691       3.59777843       0.00000000
Si       1.30771233       0.18958302      -3.65026942       0.00000000
Si      -2.91271716      -0.53398620      -2.51829728       0.00000000
