10
Lattice="16.28999089631971 0.0 0.0 0.0 16.28999089631971 0.0 0.0 0.0 34.33025523377368" Properties=species:S:1:pos:R:3:initial_magmoms:R:1 pbc="T T T"
Si       1.29899718       1.03685850       1.64465500       0.00000000
Si       1.28054061      -1.35734796      -1.49645666       0.00000000
Si       0.92341494       1.91216907      -1.35875793       0.00000000
Si      -1.37187864      -1.40330205       1.66402414       0.00000000
Si       3.06181043       0.27078867      -2.27922125       0.00000000
Si      -0.12893535       2.41870662       3.08820185       0.00000000
Si       2.58331574      -0.29937762       3.10534639       0.00000000
Si      -2.38058802      -3.27896523       0.49840147       0.00000000
Si       1.75319496      -3.68522154      -0.60771452       0.00000000
Si       2.83935744       2.97597123      -0.35164500       0.00000000
