10
Lattice="16.28999089631971 0.0 0.0 0.0 16.28999089631971 0.0 0.0 0.0 34.33025523377368" Properties=species:S:1:pos:R:3:initial_magmoms:R:1 pbc="T T T"
Si      -0.38823468      -0.83984724       2.16490144       0.00000000
Si      -1.86277520       1.44904437      -0.02399686       0.00000000
Si       2.10247862       0.92869290      -0.80521659       0.00000000
Si      -1.26508954      -1.74358386      -1.39961096       0.00000000
Si       1.20718022       3.19261194      -0.66305492       0.00000000
Si       1.79997332      -1.73337003       2.42581152       0.00000000
Si      -3.12562487      -0.24213456      -1.57702982       0.00000000
Si      -0.77009346       3.41272242       0.69501641       0.00000000
Si      -2.45867969      -2.06571861       1.80261405       0.00000000
Si       2.10433568       0.57489039      -3.30373963       0.00000000
