10
Lattice="16.28999089631971 0.0 0.0 0.0 16.28999089631971 0.0 0.0 0.0 34.33025523377368" Properties=species:S:1:pos:R:3:initial_magmoms:R:1 pbc="T T T"
Si       1.35778779       1.35798081       1.35611450       0.00000000
Si       1.35850455      -1.35745535      -1.35714441       0.00000000
Si      -1.35805983       1.35715653      -1.35789967       0.00000000
Si      -1.35780408      -1.35765083       1.35820865       0.00000000
Si       2.71500543       0.00078084      -2.71274395       0.00000000
Si       0.00185706      -2.71371188      -2.71559337       0.00000000
Si       2.71487511       2.71469346      -0.00030897       0.00000000
Si      -2.71516791       2.71500297       0.00051495       0.00000000
Si       2.71515204      -2.71514540      -0.00037763       0.00000000
Si      -2.71549943      -2.71501508      -0.00030897       0.00000000
