10
Lattice="16.28999089631971 0.0 0.0 0.0 16.28999089631971 0.0 0.0 0.0 34.33025523377368" Properties=species:S:1:pos:R:3:initial_magmoms:R:1 pbc="T T T"
Si      -1.34983175      -1.33927095       1.37496182       0.00000000
Si      -1.35292685       1.35721764      -1.35868927       0.00000000
Si       1.36058967      -1.35783666      -1.35889525       0.00000000
Si       1.36194174       1.37815029       1.39538833       0.00000000
Si       0.17778906      -2.56039183       2.72712834       0.00000000
Si      -2.70975332       2.71254564       0.00157919       0.00000000
Si       2.71298547       2.71290402       0.00312405       0.00000000
Si      -2.71236603      -0.00081450      -2.71449480       0.00000000
Si       0.00247608       2.71422351      -2.71476944       0.00000000
Si      -2.71660904      -2.71405151       0.00123589       0.00000000
