10
Lattice="16.28999089631971 0.0 0.0 0.0 16.28999089631971 0.0 0.0 0.0 34.33025523377368" Properties=species:S:1:pos:R:3:initial_magmoms:R:1 pbc="T T T"
Si       1.50340410      -1.81913688       0.26077276       0.00000000
Si       0.83158821       1.67933610       1.47668242       0.00000000
Si       0.01663209       0.74679876      -2.32635672       0.00000000
Si      -1.79699877      -0.84058029       1.62742666       0.00000000
Si      -0.82787409      -1.31098662      -3.13552128       0.00000000
Si       1.82263923       0.14638194       3.08546774       0.00000000
Si       3.28398255      -0.87149871       1.38498626       0.00000000
Si       2.77863417       2.48209101       0.11239732       0.00000000
Si      -2.89152224      -1.69767864      -1.82242262       0.00000000
Si       0.30110436      -3.54667509       1.38917455       0.00000000
