10
Lattice="16.28999089631971 0.0 0.0 0.0 16.28999089631971 0.0 0.0 0.0 34.33025523377368" Properties=species:S:1:pos:R:3:initial_magmoms:R:1 pbc="T T T"
Si      -1.35769535      -1.35736425      -1.35851762       0.00000000
Si       1.35780408       1.35765083      -1.35820865       0.00000000
Si       1.35780408      -1.35806472       1.35965052       0.00000000
Si      -1.36160684       1.35941679       1.35803700       0.00000000
Si      -2.71385603       2.71563001      -0.00154486       0.00000000
Si      -2.71463795      -2.71531494      -0.00247178       0.00000000
Si      -2.71434473      -0.00048870      -2.71607399       0.00000000
Si      -0.00025575       2.71480736      -2.71610832       0.00000000
Si       2.71559187       2.71563164      -0.00209415       0.00000000
Si      -0.00006516      -2.71513575      -2.71621131       0.00000000
