10
Lattice="16.28999089631971 0.0 0.0 0.0 16.28999089631971 0.0 0.0 0.0 34.33025523377368" Properties=species:S:1:pos:R:3:initial_magmoms:R:1 pbc="T T T"
Si       1.08009216      -0.02671560       2.03705549       0.00000000
Si      -1.33401254      -1.85782563       0.46205116       0.00000000
Si      -1.31119839       1.98630486       0.07762075       0.00000000
Si       1.42206813      -0.79272027      -1.81878361       0.00000000
Si      -2.09500151      -2.01938985      -1.77319300       0.00000000
Si      -2.72393072      -0.74930742       2.13915373       0.00000000
Si       3.29180175       0.27728838       1.29298113       0.00000000
Si      -2.27346172       1.99093122      -2.07663830       0.00000000
Si      -2.87483381       1.61894907       1.94148001       0.00000000
Si      -0.11772783      -2.23950033      -3.13126433       0.00000000
