10
Lattice="16.28999089631971 0.0 0.0 0.0 16.28999089631971 0.0 0.0 0.0 34.529650657227435" Properties=species:S:1:pos:R:3:initial_magmoms:R:1 pbc="T T T"
Si       1.34622547       1.34698752       1.37958117       0.00000000
Si      -1.36669714      -1.37090124       1.37198464       0.00000000
Si       1.34659200      -1.40213731      -1.39015070       0.00000000
Si      -1.43177569       1.29111282      -1.43844044       0.00000000
Si      -0.46195054      -2.45866436      -2.54467093       0.00000000
Si      -2.19145984      -0.61328592      -2.80964268       0.00000000
Si       2.69435818       2.67892308       0.00011049       0.00000000
Si      -0.01137859       2.70101232       2.73590660       0.00000000
Si       2.70225883      -0.01071882       2.73704608       0.00000000
Si      -2.74887106       2.69047269       0.00397437       0.00000000
