10
Lattice="16.28999089631971 0.0 0.0 0.0 16.28999089631971 0.0 0.0 0.0 34.529650657227435" Properties=species:S:1:pos:R:3:initial_magmoms:R:1 pbc="T T T"
Si       0.13817178      -1.47349566       1.83463042       0.00000000
Si       1.05829614       1.85824917       0.99359125       0.00000000
Si      -2.30014800       0.51217389      -0.22012665       0.00000000
Si       1.01237463      -0.52901775      -2.13635068       0.00000000
Si       2.22143472      -0.80078382       2.66544881       0.00000000
Si      -0.23439681       3.68854470       0.10300201       0.00000000
Si      -2.46764178       2.79130779       0.33272790       0.00000000
Si       0.10375101      -3.64016992       0.96361950       0.00000000
Si      -0.81220311      -1.33079526      -3.47561846       0.00000000
Si       3.15589428       2.37405573       0.06097940       0.00000000
