10
Lattice="16.28999089631971 0.0 0.0 0.0 16.28999089631971 0.0 0.0 0.0 34.529650657227435" Properties=species:S:1:pos:R:3:initial_magmoms:R:1 pbc="T T T"
Si      -2.19993748      -0.14590953      -0.71655971       0.00000000
Si       0.53915176      -2.31529023      -0.08508111       0.00000000
Si       1.60622821       0.92159209      -1.55904913       0.00000000
Si      -0.24191465       0.80330225       2.28551885       0.00000000
Si      -2.83539409      -1.84646403       0.82581159       0.00000000
Si       2.82204865      -2.09112354      -0.32202370       0.00000000
Si       2.84804749      -0.94979727      -2.32850829       0.00000000
Si       3.29045131      -0.95400009       1.69847994       0.00000000
Si       1.38313666       2.43346373       2.68723703       0.00000000
Si      -3.36547069       1.89314072      -0.59283990       0.00000000
