10
Lattice="16.28999089631971 0.0 0.0 0.0 16.28999089631971 0.0 0.0 0.0 34.529650657227435" Properties=species:S:1:pos:R:3:initial_magmoms:R:1 pbc="T T T"
Si       1.40535459      -1.29277440      -1.37659435       0.00000000
Si      -1.32756984       1.39634622      -1.38743667       0.00000000
Si       0.80773965       1.77414390       1.37251985       0.00000000
Si      -0.84271428      -1.90333989       1.39023357       0.00000000
Si      -1.09851615       3.35262861       1.36347308       0.00000000
Si      -2.66729202      -2.70511740       0.05096579       0.00000000
Si       0.03541446      -2.65284279      -2.73129689       0.00000000
Si       2.66035248      -2.74452291      -0.03359737       0.00000000
Si      -2.67309126       0.05349636      -2.73754676       0.00000000
Si       2.67046857       2.74535370       0.14253848       0.00000000
