10
Lattice="16.28999089631971 0.0 0.0 0.0 16.28999089631971 0.0 0.0 0.0 34.529650657227435" Properties=species:S:1:pos:R:3:initial_magmoms:R:1 pbc="T T T"
Si       0.51750072      -2.26339776      -0.63541499       0.00000000
Si       2.00593431       1.31163822       0.24944234       0.00000000
Si      -0.64563786       0.39563523      -2.30727255       0.00000000
Si      -1.81379376       0.43435656       1.61450378       0.00000000
Si       0.85875993      -3.09182571       1.50114287       0.00000000
Si       1.76277348       2.72525184      -1.59540887       0.00000000
Si      -1.56576222      -2.93610960      -1.46623338       0.00000000
Si       1.45196028       0.91144179      -3.23988440       0.00000000
Si      -3.85597332      -0.34334433       0.62526326       0.00000000
Si       1.77675030       2.91965670       1.98628473       0.00000000
