10
Lattice="16.28999089631971 0.0 0.0 0.0 16.28999089631971 0.0 0.0 0.0 34.529650657227435" Properties=species:S:1:pos:R:3:initial_magmoms:R:1 pbc="T T T"
Si      -0.51750072       2.26642770       0.32589103       0.00000000
Si      -2.04217956      -0.77770089      -0.98924051       0.00000000
Si       0.67693095      -0.80648532       2.15772455       0.00000000
Si       1.81379376      -0.43435656      -1.61450378       0.00000000
Si       1.00523961      -2.99724597       1.43498402       0.00000000
Si      -1.48325337      -3.06548478      -1.39368654       0.00000000
Si       1.46468277       3.48503373       0.17185417       0.00000000
Si      -1.62838098       2.39430420       2.44352662       0.00000000
Si      -1.87271469       2.97706266      -1.51523098       0.00000000
Si      -3.74438682      -0.76911606       0.67688512       0.00000000
