10
Lattice="16.28999089631971 0.0 0.0 0.0 16.28999089631971 0.0 0.0 0.0 34.529650657227435" Properties=species:S:1:pos:R:3:initial_magmoms:R:1 pbc="T T T"
Si       1.66581540       0.87180822       1.49153123       0.00000000
Si      -1.77448599       1.60998957       0.29018946       0.00000000
Si      -0.99704574      -1.81566711       1.46200146       0.00000000
Si       1.19353572       1.84365333      -1.77033618       0.00000000
Si       1.55901816      -1.70227242      -2.08431447       0.00000000
Si       0.95076585       0.19948734      -3.50355296       0.00000000
Si       3.00978927       2.06930241      -0.13255940       0.00000000
Si      -2.33119674      -0.41616063       2.92832806       0.00000000
Si       0.41096412       2.31761088       2.94251285       0.00000000
Si      -0.95817780       3.53615175       1.47756743       0.00000000
