10
Lattice="16.28999089631971 0.0 0.0 0.0 16.28999089631971 0.0 0.0 0.0 34.529650657227435" Properties=species:S:1:pos:R:3:initial_magmoms:R:1 pbc="T T T"
Si       1.62505130       1.63016148       0.40171818       0.00000000
Si       0.68076887      -1.34026333       1.85579711       0.00000000
Si       0.24191465      -0.80330225      -2.28551885       0.00000000
Si      -1.95673592       1.19209080       0.83240675       0.00000000
Si       1.08748130       1.97557464       2.73468080       0.00000000
Si      -1.28307926      -2.43599261       2.46807722       0.00000000
Si      -1.95802283      -0.94921178      -3.00207857       0.00000000
Si       2.16317516      -2.95595312       0.97535959       0.00000000
Si       3.72939350       0.61495239      -0.36207812       0.00000000
Si      -1.18981901       2.24388723       2.85484405       0.00000000
