10
Lattice="16.28999089631971 0.0 0.0 0.0 16.28999089631971 0.0 0.0 0.0 34.529650657227435" Properties=species:S:1:pos:R:3:initial_magmoms:R:1 pbc="T T T"
Si      -1.34617302      -1.32416523       1.37832429       0.00000000
Si      -1.39427739       1.21324662      -1.49874651       0.00000000
Si       1.36645407       1.38983022       1.36803445       0.00000000
Si       1.22494284      -1.50201945      -1.50082865       0.00000000
Si       2.28504717       0.35624601      -2.60840476       0.00000000
Si       0.51091956       2.10874050      -2.82239794       0.00000000
Si      -2.68786629      -2.68936497       0.01120833       0.00000000
Si       2.72197755      -2.69115687      -0.01632563       0.00000000
Si       0.00659745      -2.68337025       2.73357930       0.00000000
Si      -2.69395875       2.74209570      -0.02035869       0.00000000
