10
Lattice="16.28999089631971 0.0 0.0 0.0 16.28999089631971 0.0 0.0 0.0 34.529650657227435" Properties=species:S:1:pos:R:3:initial_magmoms:R:1 pbc="T T T"
Si      -1.35658233      -1.35573525      -1.35798286       0.00000000
Si      -1.35203742       1.35878148       1.36036541       0.00000000
Si       1.36203948      -1.35135324       1.35936405       0.00000000
Si       1.35910728       1.35904212      -1.35781021       0.00000000
Si       0.00109143      -2.71318095      -2.71510248       0.00000000
Si      -2.71456560      -2.71489140      -0.00013812       0.00000000
Si      -2.71402803       0.00200367      -2.71555136       0.00000000
Si       2.71591767      -2.71443528      -0.00093230       0.00000000
Si       2.71551042       0.00205254      -2.71530966       0.00000000
Si      -2.71507059       2.71581993      -0.00072512       0.00000000
