10
Lattice="16.28999089631971 0.0 0.0 0.0 16.28999089631971 0.0 0.0 0.0 34.529650657227435" Properties=species:S:1:pos:R:3:initial_magmoms:R:1 pbc="T T T"
Si       1.36140417       1.34838846      -1.35846628       0.00000000
Si       1.08139536      -1.68676434       1.24379324       0.00000000
Si      -1.36721970      -1.35971001      -1.36668434       0.00000000
Si      -1.48511043       1.24864479       1.35867345       0.00000000
Si      -2.39503725      -0.36474939       2.88775083       0.00000000
Si      -0.85696803      -3.42261045       1.34800379       0.00000000
Si       2.71417464       2.69288361       0.03632521       0.00000000
Si      -2.70853504      -2.71425609       0.01018625       0.00000000
Si      -0.00162900       2.70542691      -2.71955681       0.00000000
Si       2.71344159      -0.01039302      -2.71883168       0.00000000
