10
Lattice="16.28999089631971 0.0 0.0 0.0 16.28999089631971 0.0 0.0 0.0 34.529650657227435" Properties=species:S:1:pos:R:3:initial_magmoms:R:1 pbc="T T T"
Si      -1.56467079      -1.75728375       0.01792090       0.00000000
Si      -1.01941191       2.12377617       0.19616306       0.00000000
Si       1.11088026      -0.12787650      -2.11763560       0.00000000
Si       1.00613556      -0.06719625       2.23040950       0.00000000
Si       0.95431707       3.22678836       0.80678574       0.00000000
Si      -0.74543040      -1.29782430       3.34544160       0.00000000
Si      -0.92949111      -3.02906034       1.84688846       0.00000000
Si      -3.56490686      -0.83020356       0.83948534       0.00000000
Si       1.62838098      -2.39430420      -2.44352662       0.00000000
Si      -2.61040734       0.11158650       2.83619803       0.00000000
