10
Lattice="16.28999089631971 0.0 0.0 0.0 16.28999089631971 0.0 0.0 0.0 34.529650657227435" Properties=species:S:1:pos:R:3:initial_magmoms:R:1 pbc="T T T"
Si      -1.35277047      -1.34449515      -1.39479149       0.00000000
Si       1.35777150       1.37060802      -1.39392825       0.00000000
Si      -1.36959804       1.31237127       1.49106021       0.00000000
Si       1.36282140      -1.48520817       1.47417520       0.00000000
Si       0.28823526       2.51372619       2.84707488       0.00000000
Si      -2.71417464      -2.69288361      -0.03632521       0.00000000
Si       2.71692765      -2.71091664      -0.02575913       0.00000000
Si      -2.70759348       2.73105108      -0.00942660       0.00000000
Si       2.71443528       2.72725551      -0.02009627       0.00000000
Si      -0.00073305      -2.70327663      -2.75515690       0.00000000
