10
Lattice="16.28999089631971 0.0 0.0 0.0 16.28999089631971 0.0 0.0 0.0 34.529650657227435" Properties=species:S:1:pos:R:3:initial_magmoms:R:1 pbc="T T T"
Si       1.33242426       1.36062292       1.33909513       0.00000000
Si      -1.35459495       1.35496052      -1.35522049       0.00000000
Si       1.35707103      -1.35746199      -1.35532408       0.00000000
Si      -1.34926812      -1.35560493       1.39092417       0.00000000
Si       2.63230110      -0.01693503       2.69804482       0.00000000
Si      -2.71065600      -2.71533123       0.00704405       0.00000000
Si      -2.71414206      -0.00080155      -2.71271993       0.00000000
Si       0.00083079      -2.71495656      -2.71258181       0.00000000
Si       0.00208512       2.71470311      -2.71372129       0.00000000
Si       2.71585251      -0.00061588      -2.71309976       0.00000000
