10
Lattice="16.28999089631971 0.0 0.0 0.0 16.28999089631971 0.0 0.0 0.0 34.529650657227435" Properties=species:S:1:pos:R:3:initial_magmoms:R:1 pbc="T T T"
Si       1.36959804      -1.31237127      -1.49106021       0.00000000
Si       1.65783330       1.20135492       1.35601467       0.00000000
Si      -2.01670200      -0.91295676       1.06921123       0.00000000
Si      -1.33799544       1.41867981      -1.50048681       0.00000000
Si      -0.07102440       2.44636704       2.37529600       0.00000000
Si       2.64357378       2.75734971      -0.19336615       0.00000000
Si      -2.76789906       2.74049928      -0.06892122       0.00000000
Si       2.73241944      -2.79757944      -0.01688501       0.00000000
Si       0.01682757      -2.65686642      -2.88585170       0.00000000
Si      -2.69938332       0.05895351      -2.88436692       0.00000000
