10
Lattice="16.28999089631971 0.0 0.0 0.0 16.28999089631971 0.0 0.0 0.0 34.529650657227435" Properties=species:S:1:pos:R:3:initial_magmoms:R:1 pbc="T T T"
Si      -0.02599884      -1.14132627       2.00648459       0.00000000
Si       2.14340562       0.64800058      -0.71787184       0.00000000
Si      -1.24181928       1.87138935       0.76945917       0.00000000
Si      -1.25669205      -1.44298449      -1.46564637       0.00000000
Si       1.13217129      -0.03424158      -2.67546242       0.00000000
Si      -2.30889573      -1.36549296       2.24342719       0.00000000
Si       2.17782639       2.81467484       0.15313909       0.00000000
Si       0.44654148       3.11965622       1.84018970       0.00000000
Si       2.34119880      -2.87213877      -0.08687665       0.00000000
Si      -2.84804749       0.94979727       2.32850829       0.00000000
