10
Lattice="16.28999089631971 0.0 0.0 0.0 16.28999089631971 0.0 0.0 0.0 34.529650657227435" Properties=species:S:1:pos:R:3:initial_magmoms:R:1 pbc="T T T"
Si      -0.13778082       2.13597738       0.96900613       0.00000000
Si       0.32206959      -1.74566898       1.54496102       0.00000000
Si       2.14602831       0.01440036      -1.00098060       0.00000000
Si      -1.77499098      -0.25721910      -1.57555431       0.00000000
Si       1.42798140      -1.26749232      -2.89786802       0.00000000
Si      -0.39120435       0.12737151      -3.45020462       0.00000000
Si      -2.75840199       1.85818401      -1.35684338       0.00000000
Si       0.66207447      -3.62030589       0.04240243       0.00000000
Si      -0.06504597       1.74250872       3.24205977       0.00000000
Si       3.55337028      -0.66994254       0.82536270       0.00000000
