10
Lattice="16.28999089631971 0.0 0.0 0.0 16.28999089631971 0.0 0.0 0.0 34.529650657227435" Properties=species:S:1:pos:R:3:initial_magmoms:R:1 pbc="T T T"
Si       0.48296592       0.01598049      -2.35506161       0.00000000
Si      -2.06097822       0.95446368       0.78938278       0.00000000
Si       2.07083367       0.73407627       1.01544853       0.00000000
Si      -0.47254032      -2.35929699       0.28887522       0.00000000
Si       1.39590639      -3.24136791      -0.81969984       0.00000000
Si       1.12596480      -2.20252203      -2.94417231       0.00000000
Si       1.94386941       0.62648082       3.34457836       0.00000000
Si      -3.88062172       0.17560620      -0.60392393       0.00000000
Si       2.53759104       1.02423375      -2.82297317       0.00000000
Si      -1.93697874      -3.10884876      -1.45763549       0.00000000
