10
Lattice="16.28999089631971 0.0 0.0 0.0 16.28999089631971 0.0 0.0 0.0 34.529650657227435" Properties=species:S:1:pos:R:3:initial_magmoms:R:1 pbc="T T T"
Si       1.01625165      -0.77408125       2.00786578       0.00000000
Si       1.75686021       0.86335371      -1.36955030       0.00000000
Si      -0.95146632      -1.77787493      -1.37200191       0.00000000
Si      -1.74620655       1.70453673       0.05428064       0.00000000
Si      -2.25134316      -0.40031698      -2.73095160       0.00000000
Si       0.50186232       2.31510222      -2.71254728       0.00000000
Si       3.26528163       2.00748186       0.04485404       0.00000000
Si      -1.93720680      -3.33386972       0.17737891       0.00000000
Si      -3.57078429       0.90275922      -1.28498714       0.00000000
Si      -0.90349227       3.60787662      -1.33595293       0.00000000
