10
Lattice="16.28999089631971 0.0 0.0 0.0 16.28999089631971 0.0 0.0 0.0 34.529650657227435" Properties=species:S:1:pos:R:3:initial_magmoms:R:1 pbc="T T T"
Si       0.34125921      -0.82842795       2.13655786       0.00000000
Si      -2.08326294      -0.67271184      -0.83081839       0.00000000
Si      -0.51750072       2.26339776       0.63541499       0.00000000
Si       2.00469627      -0.38270097      -1.32638821       0.00000000
Si      -1.16313858       2.65903299      -1.67185756       0.00000000
Si      -2.22143472       0.80078382      -2.66544881       0.00000000
Si       2.66224212      -0.31535811       2.50122570       0.00000000
Si       3.46542057      -1.14662052       0.45596429       0.00000000
Si       1.55339811      -2.20685191      -2.84821436       0.00000000
Si      -3.81454785      -0.36773046       0.85623223       0.00000000
