10
Lattice="16.28999089631971 0.0 0.0 0.0 16.28999089631971 0.0 0.0 0.0 34.529650657227435" Properties=species:S:1:pos:R:3:initial_magmoms:R:1 pbc="T T T"
Si      -1.39598784      -0.68267155       1.76650339       0.00000000
Si       2.35212939       0.11489337       0.39933563       0.00000000
Si      -1.07145846      -1.21328897      -1.79426524       0.00000000
Si      -0.67476438       2.33030079      -0.07907294       0.00000000
Si       0.04926096       0.11098377       3.59402070       0.00000000
Si      -3.53817890       0.29061360       0.89297179       0.00000000
Si      -3.43832120      -0.61260500      -1.32787299       0.00000000
Si      -2.85310065       2.60576469       0.95170676       0.00000000
Si      -0.21763440      -0.63695366      -3.97229323       0.00000000
Si       3.75347664       0.23755707      -1.50266218       0.00000000
