10
Lattice="16.28999089631971 0.0 0.0 0.0 16.28999089631971 0.0 0.0 0.0 34.529650657227435" Properties=species:S:1:pos:R:3:initial_magmoms:R:1 pbc="T T T"
Si      -0.92649375       1.44521622       1.67758949       0.00000000
Si       1.64364471       1.51332471      -0.91600308       0.00000000
Si      -1.83754458      -0.93455730      -1.26433840       0.00000000
Si       0.41344020      -2.15620956       1.07653152       0.00000000
Si      -1.58140062      -2.01034890       2.35848005       0.00000000
Si      -3.08848626      -1.90330731       0.54943611       0.00000000
Si      -1.19571858       0.00192222       3.49174381       0.00000000
Si       3.69398556       0.33418935      -1.30390940       0.00000000
Si      -1.50923592      -3.12531795      -1.98707892       0.00000000
Si       1.07606853       2.35722816      -3.05028198       0.00000000
