10
Lattice="16.28999089631971 0.0 0.0 0.0 16.28999089631971 0.0 0.0 0.0 34.529650657227435" Properties=species:S:1:pos:R:3:initial_magmoms:R:1 pbc="T T T"
Si       1.14784227      -1.77756480      -0.98875710       0.00000000
Si      -0.57332655      -0.06765237       2.27018768       0.00000000
Si       1.79365932       0.92721051       1.20429130       0.00000000
Si       0.77745654       2.05433190      -1.18523092       0.00000000
Si       0.17549217      -0.95790087      -2.98146435       0.00000000
Si      -1.87484868       0.22123449      -2.59355804       0.00000000
Si      -1.68420681       2.37063483      -1.39952205       0.00000000
Si      -1.40470299       2.12714820       2.34953686       0.00000000
Si      -2.96051202       1.98553923       0.58210118       0.00000000
Si       1.57079583       0.94465710      -3.18429163       0.00000000
