10
Lattice="16.28999089631971 0.0 0.0 0.0 16.28999089631971 0.0 0.0 0.0 34.529650657227435" Properties=species:S:1:pos:R:3:initial_magmoms:R:1 pbc="T T T"
Si      -1.42231248       0.70244109       1.77119942       0.00000000
Si       0.16755894       2.27124954      -0.87864198       0.00000000
Si       0.08109162      -1.00313820      -2.33900531       0.00000000
Si       1.27523007      -1.72553454       1.65707886       0.00000000
Si      -3.23856603       0.47679201       0.13342264       0.00000000
Si       2.13452757       0.05605389      -2.98837029       0.00000000
Si       2.40841134      -2.93369868      -0.35513766       0.00000000
Si       1.30315113       2.25085446      -2.90902110       0.00000000
Si      -0.10832850       2.13809508       3.33423469       0.00000000
Si       1.83435174       3.51894951       0.12095743       0.00000000
