10
Lattice="16.28999089631971 0.0 0.0 0.0 16.28999089631971 0.0 0.0 0.0 34.529650657227435" Properties=species:S:1:pos:R:3:initial_magmoms:R:1 pbc="T T T"
Si       1.35266459       1.35246096       1.37515101       0.00000000
Si      -1.35944352      -1.36391283       1.37138728       0.00000000
Si      -1.46378097       1.22839632      -1.42586129       0.00000000
Si       1.30313810      -1.44687780      -1.42325430       0.00000000
Si      -2.24812818      -0.72246150      -2.63139911       0.00000000
Si      -0.43545843      -2.45091195      -2.86165472       0.00000000
Si       2.71259125       2.69672805      -0.01076635       0.00000000
Si      -2.73384711       2.70130554      -0.00867385       0.00000000
Si      -0.00426038       2.70663237       2.73530924       0.00000000
Si      -0.14824944       2.81352735      -2.62260336       0.00000000
