10
Lattice="16.28999089631971 0.0 0.0 0.0 16.28999089631971 0.0 0.0 0.0 34.529650657227435" Properties=species:S:1:pos:R:3:initial_magmoms:R:1 pbc="T T T"
Si      -1.05477750       0.91033407       1.92054024       0.00000000
Si       0.75735468      -2.21298021       0.58389672       0.00000000
Si       2.32026615       1.05252948      -0.00776918       0.00000000
Si      -1.92961566       0.54162621      -1.66346685       0.00000000
Si       1.02384279       3.10141467       0.16702001       0.00000000
Si      -2.44944585      -1.05125886       1.94440024       0.00000000
Si       0.99893538      -2.61988812      -1.80058417       0.00000000
Si      -0.63026010      -2.44612269       2.49673685       0.00000000
Si       1.79058051      -0.75753387      -3.12655803       0.00000000
Si      -2.64723903       2.46888049       1.31340506       0.00000000
