10
Lattice="16.28999089631971 0.0 0.0 0.0 16.28999089631971 0.0 0.0 0.0 34.529650657227435" Properties=species:S:1:pos:R:3:initial_magmoms:R:1 pbc="T T T"
Si      -0.34086825      -2.21700384       0.63686523       0.00000000
Si      -0.71285040       1.10718896       1.92775694       0.00000000
Si       2.22770637       0.73619397      -0.09671761       0.00000000
Si      -1.48343256      -0.14243976      -1.83621879       0.00000000
Si      -2.62467738      -0.09542682       2.60685196       0.00000000
Si      -2.48689656      -2.23140420       1.63784583       0.00000000
Si      -0.61695117       3.42706481       1.39503320       0.00000000
Si       3.19442013       0.31840434       2.02468173       0.00000000
Si       3.35412729      -0.29352951      -1.88152172       0.00000000
Si      -1.05891516      -3.49889652      -1.26002219       0.00000000
