10
Lattice="16.28999089631971 0.0 0.0 0.0 16.28999089631971 0.0 0.0 0.0 34.529650657227435" Properties=species:S:1:pos:R:3:initial_magmoms:R:1 pbc="T T T"
Si       1.80071289      -1.09615410       1.04790642       0.00000000
Si       0.50365422       2.29695516       0.14278019       0.00000000
Si      -1.54339605      -0.66753162      -1.70690517       0.00000000
Si      -1.53398043      -0.58940478       1.77883048       0.00000000
Si       2.30218425       0.97454925       2.49742744       0.00000000
Si       2.43274860      -2.44832184      -0.85174337       0.00000000
Si      -3.40278552       0.64759266      -0.93665183       0.00000000
Si      -2.09517093      -2.78787060       0.91023663       0.00000000
Si       0.00733050       3.07332257      -2.00133967       0.00000000
Si      -3.52974978       0.53999721       1.39247800       0.00000000
