10
Lattice="16.28999089631971 0.0 0.0 0.0 16.28999089631971 0.0 0.0 0.0 34.529650657227435" Properties=species:S:1:pos:R:3:initial_magmoms:R:1 pbc="T T T"
Si      -1.33330392      -1.34242632       1.37318973       0.00000000
Si       1.38165264       1.37086866       1.36911523       0.00000000
Si      -1.42454421       1.24895430      -1.47454121       0.00000000
Si       1.31709537      -1.39935987      -1.44241481       0.00000000
Si       0.49296798       2.01231999      -2.63367116       0.00000000
Si       2.30563773       0.28386954      -2.86392678       0.00000000
Si      -2.68894143      -2.70707220      -0.02635995       0.00000000
Si      -2.69475696       2.72043000      -0.01721304       0.00000000
Si      -2.69377956       0.01109349       2.73186318       0.00000000
Si       0.01972719      -2.70275535       2.73151788       0.00000000
