10
Lattice="16.28999089631971 0.0 0.0 0.0 16.28999089631971 0.0 0.0 0.0 34.529650657227435" Properties=species:S:1:pos:R:3:initial_magmoms:R:1 pbc="T T T"
Si       0.53027208      -2.25375408      -0.01405358       0.00000000
Si       1.54656024       1.49850081      -0.96603658       0.00000000
Si       0.12326643       0.88112610       2.18925013       0.00000000
Si      -2.36933163      -0.42300243      -0.13818774       0.00000000
Si      -0.68655834      -2.70941796       2.04291339       0.00000000
Si      -1.72351458       2.28177288       2.05486066       0.00000000
Si       0.37812348       2.02908240      -2.91979436       0.00000000
Si       2.50105976       2.44029087       1.03067612       0.00000000
Si      -0.61113564      -0.83970063       3.59688666       0.00000000
Si       2.80757240      -2.52206667      -0.13421683       0.00000000
