10
Lattice="16.28999089631971 0.0 0.0 0.0 16.28999089631971 0.0 0.0 0.0 34.529650657227435" Properties=species:S:1:pos:R:3:initial_magmoms:R:1 pbc="T T T"
Si       0.62517762       1.71119934       1.46195170       0.00000000
Si       1.99868526      -0.91584009      -1.02587649       0.00000000
Si      -1.20679578      -1.77898203       1.13122652       0.00000000
Si      -1.48067955       1.21077054      -1.50200611       0.00000000
Si      -2.73393441      -2.04564933      -0.74587540       0.00000000
Si       0.88630632       2.20563342      -2.56790250       0.00000000
Si      -3.53411550       0.15157845      -0.85264114       0.00000000
Si       2.73308733       0.80498664      -2.43351302       0.00000000
Si       3.47591363      -1.40577813       0.94000121       0.00000000
Si      -2.33997705      -0.57081789       3.14344303       0.00000000
