10
Lattice="16.28999089631971 0.0 0.0 0.0 16.28999089631971 0.0 0.0 0.0 34.529650657227435" Properties=species:S:1:pos:R:3:initial_magmoms:R:1 pbc="T T T"
Si       1.35172439      -1.35299853      -1.35853533       0.00000000
Si      -1.37212066      -1.33889139       1.36668434       0.00000000
Si      -1.36177651       1.36316349      -1.35798286       0.00000000
Si       1.35918521       1.37142252       1.37117319       0.00000000
Si       2.70530610      -2.70505224       0.00642252       0.00000000
Si       2.70970440       0.00506619      -2.71586213       0.00000000
Si      -0.00548887      -2.71023246      -2.71555136       0.00000000
Si       2.70050055       2.72596860      -0.00569740       0.00000000
Si      -2.71619227      -2.71083519       0.00279690       0.00000000
Si      -2.71997155       0.00384444      -2.71582760       0.00000000
