10
Lattice="16.28999089631971 0.0 0.0 0.0 16.28999089631971 0.0 0.0 0.0 34.529650657227435" Properties=species:S:1:pos:R:3:initial_magmoms:R:1 pbc="T T T"
Si      -2.16795465       0.76804092      -0.21788222       0.00000000
Si       0.14356377      -1.45932336      -1.81477586       0.00000000
Si       0.50562531      -1.31874066       1.86080391       0.00000000
Si       1.74970890       1.55717739       0.04164278       0.00000000
Si      -1.74506625       1.60425549      -2.43434173       0.00000000
Si       2.83012686      -1.58887773       1.27473183       0.00000000
Si       1.14114708       2.77210188       1.96111261       0.00000000
Si       3.61522897       0.15239295      -0.19875278       0.00000000
Si      -1.33571484      -0.46838637      -3.39844465       0.00000000
Si      -3.50759538      -1.19825982       0.31725861       0.00000000
