10
Lattice="16.28999089631971 0.0 0.0 0.0 16.28999089631971 0.0 0.0 0.0 34.529650657227435" Properties=species:S:1:pos:R:3:initial_magmoms:R:1 pbc="T T T"
Si      -0.02911023       1.03830831      -2.12903039       0.00000000
Si      -1.20992346       1.42469082       1.47949277       0.00000000
Si       2.20374934       0.29411595       0.91538155       0.00000000
Si      -1.45797129      -1.94285943      -0.23027837       0.00000000
Si      -2.01831471       3.06831924      -0.04540652       0.00000000
Si       1.93624848      -0.43940646       3.15007273       0.00000000
Si      -0.24257439      -1.20106170       3.52209539       0.00000000
Si       2.34094372       2.58186726       1.44589540       0.00000000
Si      -0.44176851      -3.06998082       2.15924385       0.00000000
Si      -2.16205767       0.04442283       3.15017632       0.00000000
