10
Lattice="16.28999089631971 0.0 0.0 0.0 16.28999089631971 0.0 0.0 0.0 34.529650657227435" Properties=species:S:1:pos:R:3:initial_magmoms:R:1 pbc="T T T"
Si       0.19919412       1.86891912       1.36285154       0.00000000
Si       1.84678101      -1.40064678       0.13438948       0.00000000
Si      -1.79365932      -0.92721051      -1.20429130       0.00000000
Si      -2.36698587      -0.99486288       1.06589638       0.00000000
Si      -1.01620278       1.12712139      -2.38952222       0.00000000
Si       3.15261740       0.31392459       1.17052128       0.00000000
Si      -0.88630632      -2.20563342       2.56790250       0.00000000
Si       1.72351458      -2.28177288      -2.05486066       0.00000000
Si      -0.64581705      -2.70477531      -2.19304840       0.00000000
Si      -3.19836231       1.19993769       1.14524556       0.00000000
