10
Lattice="16.28999089631971 0.0 0.0 0.0 16.28999089631971 0.0 0.0 0.0 34.529650657227435" Properties=species:S:1:pos:R:3:initial_magmoms:R:1 pbc="T T T"
Si       0.54503082       1.96451603       1.23999498       0.00000000
Si       1.39206195      -1.29357261      -1.44499763       0.00000000
Si      -0.87884550      -1.84640634       1.24814398       0.00000000
Si      -1.33266861       1.38064007      -1.45670319       0.00000000
Si       2.53346967       2.62637873      -0.14067388       0.00000000
Si       2.58154146      -2.79968085      -0.01743748       0.00000000
Si      -2.77759161       2.67945155      -0.12251127       0.00000000
Si       0.02277342      -2.65843026      -2.82017626       0.00000000
Si      -2.68185528       0.05204655      -2.82135027       0.00000000
Si      -2.22177681      -1.00686861       3.08011562       0.00000000
