10
Lattice="16.28999089631971 0.0 0.0 0.0 16.28999089631971 0.0 0.0 0.0 34.529650657227435" Properties=species:S:1:pos:R:3:initial_magmoms:R:1 pbc="T T T"
Si       0.55133505       1.40613651       1.78456240       0.00000000
Si       0.34968114      -2.03276394       1.10498397       0.00000000
Si       1.70220726      -0.00858483      -1.66612563       0.00000000
Si      -2.25032634       0.70540587      -0.53310357       0.00000000
Si      -1.65939877       1.26633573      -2.78039808       0.00000000
Si       0.69926454       1.76896368      -2.94479384       0.00000000
Si      -1.44890102       2.33321670       2.60612684       0.00000000
Si       1.18651473       0.13435992       3.61352996       0.00000000
Si       2.26113345      -2.29636872      -2.07057166       0.00000000
Si      -0.18788886      -1.68735078       3.43794659       0.00000000
