10
Lattice="16.28999089631971 0.0 0.0 0.0 16.28999089631971 0.0 0.0 0.0 34.529650657227435" Properties=species:S:1:pos:R:3:initial_magmoms:R:1 pbc="T T T"
Si       0.59092757       0.56092986      -2.24729451       0.00000000
Si       2.25032634      -0.70540587       0.53310357       0.00000000
Si      -1.66200128      -1.79528832       0.22271637       0.00000000
Si      -0.36701144       2.15839242       1.18547263       0.00000000
Si       0.80142532       1.62781083       3.13923041       0.00000000
Si       2.80166139       0.70073064       2.31766598       0.00000000
Si      -0.95431481       2.20602438      -3.06057183       0.00000000
Si      -0.98177975      -3.17624049       2.06877612       0.00000000
Si       0.41809067       3.89966310      -0.28801198       0.00000000
Si       2.94959088       1.06355781      -2.41169027       0.00000000
