10
Lattice="16.28999089631971 0.0 0.0 0.0 16.28999089631971 0.0 0.0 0.0 34.529650657227435" Properties=species:S:1:pos:R:3:initial_magmoms:R:1 pbc="T T T"
Si      -1.37440359      -1.82171070      -0.17558337       0.00000000
Si       0.18406071       1.73123604       1.49855315       0.00000000
Si       1.98386136      -1.14047919      -0.31891603       0.00000000
Si      -0.63517968       1.27177659      -1.82896756       0.00000000
Si      -0.83683359      -2.16712386      -2.50854599       0.00000000
Si       1.93562667       2.96186409       0.38352104       0.00000000
Si      -2.63541575       2.19885678      -1.00740312       0.00000000
Si       0.92949111       3.02906034      -1.84688846       0.00000000
Si      -1.68091623       3.14064684       0.98930957       0.00000000
Si       1.35479043      -3.44122992      -0.58286083       0.00000000
