10
Lattice="16.28999089631971 0.0 0.0 0.0 16.28999089631971 0.0 0.0 0.0 34.529650657227435" Properties=species:S:1:pos:R:3:initial_magmoms:R:1 pbc="T T T"
Si      -0.18406071      -1.73123604      -1.49855315       0.00000000
Si      -0.00851967      -0.80280378       2.23413871       0.00000000
Si      -1.86497694       1.40941080      -0.50924357       0.00000000
Si       1.75156596       1.23062805      -1.11503210       0.00000000
Si      -1.05736761       1.12948344       3.04271999       0.00000000
Si      -0.81924039      -0.45945945      -3.32752070       0.00000000
Si       0.74543040       1.29782430      -3.34544160       0.00000000
Si      -2.93693387       1.56481740       1.68546225       0.00000000
Si      -2.81947646       0.46762074      -2.50595627       0.00000000
Si       2.21759028      -0.96739794       2.96941350       0.00000000
