10
Lattice="16.28999089631971 0.0 0.0 0.0 16.28999089631971 0.0 0.0 0.0 34.529650657227435" Properties=species:S:1:pos:R:3:initial_magmoms:R:1 pbc="T T T"
Si      -0.68507825      -2.31515109      -0.05873497       0.00000000
Si       2.17833627      -0.27546390      -1.03077971       0.00000000
Si      -1.47722837       0.48993804      -1.96587770       0.00000000
Si      -0.70201985       1.07289198       2.51838695       0.00000000
Si       1.45711281      -3.28843624       0.81479662       0.00000000
Si      -3.47591363       1.40577813      -0.94000121       0.00000000
Si       1.49088198       3.44390148       1.11261503       0.00000000
Si       2.85310065      -2.60576469      -0.95170676       0.00000000
Si      -0.58522055      -3.21836969      -2.27957975       0.00000000
Si      -3.19543241      -2.42321895       0.21922887       0.00000000
