10
Lattice="16.28999089631971 0.0 0.0 0.0 16.28999089631971 0.0 0.0 0.0 34.529650657227435" Properties=species:S:1:pos:R:3:initial_magmoms:R:1 pbc="T T T"
Si      -1.86552007       1.40478444       0.24039556       0.00000000
Si       1.64420020       1.44386415       0.96500069       0.00000000
Si      -0.78510211      -1.74127068       1.47348461       0.00000000
Si      -0.71261161       0.55315953      -3.18512035       0.00000000
Si       2.84405644       1.33064865      -1.06106223       0.00000000
Si      -1.37240548      -1.69363872      -2.77255985       0.00000000
Si      -3.61522897      -0.15239295       0.19875278       0.00000000
Si       1.33698709       1.73499903      -3.00304540       0.00000000
Si       0.17283690      -3.33873324      -1.95928253       0.00000000
Si      -0.41809067      -3.89966310       0.28801198       0.00000000
