10
Lattice="16.28999089631971 0.0 0.0 0.0 16.28999089631971 0.0 0.0 0.0 34.529650657227435" Properties=species:S:1:pos:R:3:initial_magmoms:R:1 pbc="T T T"
Si       0.50178087       2.20887513      -0.54287547       0.00000000
Si       1.86497694      -1.40941080       0.50924357       0.00000000
Si      -0.95449952      -0.94179006      -1.99671269       0.00000000
Si      -1.07195693       0.15540660       2.19470582       0.00000000
Si      -2.37779333      -1.55916477       1.15857402       0.00000000
Si       1.04573655      -1.86887025      -2.81827713       0.00000000
Si      -1.57905649       3.20557878      -0.21967776       0.00000000
Si      -2.50105976      -2.44029087      -1.03067612       0.00000000
Si       0.80760933      -0.27992736       3.55196356       0.00000000
Si       3.61654290      -0.17878275      -0.60578853       0.00000000
