10
Lattice="16.28999089631971 0.0 0.0 0.0 16.28999089631971 0.0 0.0 0.0 34.529650657227435" Properties=species:S:1:pos:R:3:initial_magmoms:R:1 pbc="T T T"
Si      -1.35358171       1.35205371      -1.36495785       0.00000000
Si       1.36366848      -1.36475991      -1.36468162       0.00000000
Si      -1.36841864      -1.37384810       1.36813458       0.00000000
Si       1.36932111       1.36928853       1.38726402       0.00000000
Si      -2.70530610       2.70505224      -0.00642252       0.00000000
Si       2.72544732       2.70259245      -0.01291410       0.00000000
Si      -2.70861065      -2.72191114      -0.00804541       0.00000000
Si       0.00439830       2.71011843      -2.72228465       0.00000000
Si      -2.71079497      -0.00518022      -2.72197388       0.00000000
Si       2.71826343      -2.71972043      -0.00946113       0.00000000
