10
Lattice="16.28999089631971 0.0 0.0 0.0 16.28999089631971 0.0 0.0 0.0 34.529650657227435" Properties=species:S:1:pos:R:3:initial_magmoms:R:1 pbc="T T T"
Si       1.25669205       1.44298449       1.46564637       0.00000000
Si      -2.41913993       0.00428427       0.13680655       0.00000000
Si      -1.26351756      -0.07283259      -2.27626490       0.00000000
Si       0.41839236      -2.72671794      -0.32602914       0.00000000
Si       2.38886334       1.40874291      -1.20981605       0.00000000
Si       0.44318574      -1.95058089      -2.51590081       0.00000000
Si      -2.31437406      -1.15795836       2.14553557       0.00000000
Si      -1.05314850      -3.09091347       1.55224678       0.00000000
Si       1.23069321       0.30165822       3.47213096       0.00000000
Si      -1.05220368       0.07749153       3.70907356       0.00000000
