10
Lattice="16.28999089631971 0.0 0.0 0.0 16.28999089631971 0.0 0.0 0.0 34.281931910070035" Properties=species:S:1:pos:R:3:initial_magmoms:R:1 pbc="T T T"
Si       0.73901214       2.21322456       0.29328209       0.00000000
Si       2.06102709      -1.13774247      -0.39880194       0.00000000
Si      -1.80379170      -0.03443706      -1.59647618       0.00000000
Si      -0.20388564      -0.92483217       2.23833715       0.00000000
Si       2.03747175       0.15247440       1.63545476       0.00000000
Si      -1.12511772      -1.64312343      -3.11869765       0.00000000
Si       2.76301206      -0.54147960      -2.49905139       0.00000000
Si      -3.72702887      -0.68352840      -0.31978204       0.00000000
Si       1.78440660       2.90951685      -1.71711437       0.00000000
Si      -0.90117909       3.42522729       1.51769626       0.00000000
