10
Lattice="16.28999089631971 0.0 0.0 0.0 16.28999089631971 0.0 0.0 0.0 34.281931910070035" Properties=species:S:1:pos:R:3:initial_magmoms:R:1 pbc="T T T"
Si       1.35697329      -1.35692442      -1.35708532       0.00000000
Si      -1.35646830      -1.35738054       1.35777095       0.00000000
Si      -1.35734796       1.35749457      -1.35756526       0.00000000
Si       1.35853713       1.35855342       1.35698247       0.00000000
Si       2.70873378       0.00276930       2.71694747       0.00000000
Si      -0.00192222      -2.71402870       2.71523337       0.00000000
Si       0.00161271      -2.71483272      -2.71468486       0.00000000
Si       2.71466334      -2.71499404      -0.00030854       0.00000000
Si       2.71427238       2.71562445       0.00023997       0.00000000
Si       2.71676475      -0.00034209      -2.71324502       0.00000000
