10
Lattice="16.28999089631971 0.0 0.0 0.0 16.28999089631971 0.0 0.0 0.0 34.281931910070035" Properties=species:S:1:pos:R:3:initial_magmoms:R:1 pbc="T T T"
Si      -1.72771740      -1.08678735       1.25009135       0.00000000
Si       1.25405307      -1.41561077      -1.49400743       0.00000000
Si      -1.44883260       1.29549483      -1.47364395       0.00000000
Si       1.97698698       0.85196700       1.37374634       0.00000000
Si       2.81256624      -2.56550070      -0.16935284       0.00000000
Si      -2.72313414      -2.66197871      -0.20301771       0.00000000
Si       2.68312590       2.73287556       0.03901286       0.00000000
Si       2.60636742      -0.06317262      -2.85942326       0.00000000
Si      -0.50388228      -2.58720712       2.83933403       0.00000000
Si      -0.45221040      -0.34520139       3.83474476       0.00000000
