10
Lattice="16.28999089631971 0.0 0.0 0.0 16.28999089631971 0.0 0.0 0.0 34.281931910070035" Properties=species:S:1:pos:R:3:initial_magmoms:R:1 pbc="T T T"
Si      -1.46722075       1.25357626      -1.28704729       0.00000000
Si       1.26956115      -1.47264225      -1.31306729       0.00000000
Si       0.99541674       1.57519136       1.45310906       0.00000000
Si      -1.77152121      -0.86829954       1.46089106       0.00000000
Si      -0.02897991      -0.67293357       3.20649373       0.00000000
Si       2.71798650      -2.51846025       0.16434767       0.00000000
Si      -0.09575262       2.59685129      -2.65499998       0.00000000
Si      -1.75491844       1.76433455       2.76185682       0.00000000
Si       2.61884556      -0.11799191      -2.65811964       0.00000000
Si       2.21925186       0.07477159       3.04235175       0.00000000
