10
Lattice="16.28999089631971 0.0 0.0 0.0 16.28999089631971 0.0 0.0 0.0 34.281931910070035" Properties=species:S:1:pos:R:3:initial_magmoms:R:1 pbc="T T T"
Si       1.35702216      -1.35669636       1.35783952       0.00000000
Si       1.35816246       1.35837423      -1.35626255       0.00000000
Si      -1.35764118       1.35769005       1.35763383       0.00000000
Si      -1.35821133      -1.35786924      -1.35821662       0.00000000
Si      -2.71336014       0.00087966       2.71345071       0.00000000
Si       0.00128691      -2.71376739       2.71458201       0.00000000
Si      -2.71459818      -2.71482624       0.00003428       0.00000000
Si       2.71472850      -2.71511946       0.00041138       0.00000000
Si       2.71166598      -0.00053757      -2.71883298       0.00000000
Si       2.71516833       2.71539639       0.00006856       0.00000000
