10
Lattice="16.28999089631971 0.0 0.0 0.0 16.28999089631971 0.0 0.0 0.0 34.281931910070035" Properties=species:S:1:pos:R:3:initial_magmoms:R:1 pbc="T T T"
Si       1.68112474       1.06645743       1.59462495       0.00000000
Si       0.95678989      -1.28325941       2.34968493       0.00000000
Si      -1.11950811       0.84812256      -2.48814973       0.00000000
Si      -0.01660277      -2.63263409      -1.30096576       0.00000000
Si      -0.26836798       2.68861563      -1.27144900       0.00000000
Si       1.72593853      -2.43726812       0.44463691       0.00000000
Si       2.75033518      -0.18914319      -1.30874776       0.00000000
Si      -3.02991786       0.01265733      -0.94361070       0.00000000
Si      -2.87126955      -0.59531805       1.61046322       0.00000000
Si      -1.24573932      -1.96239833       2.80333798       0.00000000
