10
Lattice="16.28999089631971 0.0 0.0 0.0 16.28999089631971 0.0 0.0 0.0 34.281931910070035" Properties=species:S:1:pos:R:3:initial_magmoms:R:1 pbc="T T T"
Si       1.35571896       1.35681039      -1.35581688       0.00000000
Si      -1.35913986      -1.35769005      -1.35581688       0.00000000
Si       1.35609363      -1.35677781       1.36020497       0.00000000
Si      -1.36106208       1.35897696       1.36037638       0.00000000
Si       2.71336014      -0.00087966      -2.71345071       0.00000000
Si      -0.00216657       2.71435383      -2.71351927       0.00000000
Si      -0.00123804      -2.71570590      -2.71341643       0.00000000
Si       2.71464705      -2.71464705       0.00113130       0.00000000
Si      -2.71499729      -2.71454931       0.00078848       0.00000000
Si       2.71469592       2.71507059       0.00301681       0.00000000
