10
Lattice="16.28999089631971 0.0 0.0 0.0 16.28999089631971 0.0 0.0 0.0 34.281931910070035" Properties=species:S:1:pos:R:3:initial_magmoms:R:1 pbc="T T T"
Si      -1.03623948       1.01384073      -1.85719042       0.00000000
Si      -0.24977457       1.65710025       1.70192746       0.00000000
Si      -0.94680738      -2.17564353       0.46798291       0.00000000
Si       2.41973289      -0.18088416      -0.26859909       0.00000000
Si       2.88236889      -0.13807404       2.06932713       0.00000000
Si      -0.12181662      -0.41796882      -3.54890186       0.00000000
Si      -0.50666787      -2.42181801       2.81914196       0.00000000
Si       1.86251715       1.93789098       2.66634731       0.00000000
Si      -1.05433767       3.62942829       0.71148761       0.00000000
Si      -0.98618031       3.45031974      -1.63946575       0.00000000
