10
Lattice="16.28999089631971 0.0 0.0 0.0 16.28999089631971 0.0 0.0 0.0 34.281931910070035" Properties=species:S:1:pos:R:3:initial_magmoms:R:1 pbc="T T T"
Si      -1.35560493       1.35915615       1.36359889       0.00000000
Si       1.35998694      -1.35769005       1.36473019       0.00000000
Si       1.38394953       1.35148356      -1.36974907       0.00000000
Si      -1.35485559      -1.36423863      -1.38859728       0.00000000
Si       0.01037673       2.75936310      -2.62999130       0.00000000
Si      -2.71207323       2.71464705       0.00435381       0.00000000
Si      -2.71402803      -2.71336014       0.00466235       0.00000000
Si       2.71349046      -2.71660185       0.00215976       0.00000000
Si       2.71816569       2.71269225       0.00613647       0.00000000
Si      -2.71370223      -0.00083079       2.72092417       0.00000000
