10
Lattice="16.28999089631971 0.0 0.0 0.0 16.28999089631971 0.0 0.0 0.0 34.281931910070035" Properties=species:S:1:pos:R:3:initial_magmoms:R:1 pbc="T T T"
Si       1.05384897       1.70033391      -1.33548769       0.00000000
Si      -1.72418247      -1.02195315      -1.38262537       0.00000000
Si       1.90299780      -1.63577664      -0.00750775       0.00000000
Si      -0.49977720       1.36133901       2.26980798       0.00000000
Si      -1.55077542      -2.71246419       1.64104272       0.00000000
Si       2.36363013       0.31609116      -2.87875828       0.00000000
Si      -0.35520345      -2.43496404      -2.85332107       0.00000000
Si      -1.24196589       3.44471598       1.33826452       0.00000000
Si       3.20008905      -1.03679334       2.08324560       0.00000000
Si       2.39275665       3.20236965       0.20853711       0.00000000
