10
Lattice="16.28999089631971 0.0 0.0 0.0 16.28999089631971 0.0 0.0 0.0 34.281931910070035" Properties=species:S:1:pos:R:3:initial_magmoms:R:1 pbc="T T T"
Si      -1.91536191      -0.20551464       1.28067085       0.00000000
Si       1.70614944       0.40640292       1.62061067       0.00000000
Si      -0.74218869       2.08337697      -0.93154346       0.00000000
Si       0.49977720      -1.36133901      -2.26980798       0.00000000
Si      -1.96542108      -2.64199365       1.06294617       0.00000000
Si       2.64412764      -1.81280007       1.91869224       0.00000000
Si       3.38835258       1.57232709       0.36890808       0.00000000
Si       1.36251189       3.46512735      -1.27470579       0.00000000
Si      -3.23115408       1.88318916       1.22972787       0.00000000
Si       1.55362617       0.33899490      -3.60529567       0.00000000
