10
Lattice="16.28999089631971 0.0 0.0 0.0 16.28999089631971 0.0 0.0 0.0 34.281931910070035" Properties=species:S:1:pos:R:3:initial_magmoms:R:1 pbc="T T T"
Si       2.08510371      -0.96456348      -0.36451999       0.00000000
Si      -0.67826673      -0.49287024       2.20717486       0.00000000
Si      -0.93346587      -1.27053855      -1.81474936       0.00000000
Si      -0.21400173       2.38969413       0.23016902       0.00000000
Si       3.41071875       0.06805962       1.18289872       0.00000000
Si      -2.45838906       2.40104826       1.12047129       0.00000000
Si      -2.83385727       0.36742095       2.33919465       0.00000000
Si       0.59987925      -0.96718617      -3.56168902       0.00000000
Si       2.71217097      -0.68639544      -2.59726918       0.00000000
Si       2.03465358      -3.29390316       0.13256830       0.00000000
