10
Lattice="16.28999089631971 0.0 0.0 0.0 16.28999089631971 0.0 0.0 0.0 34.281931910070035" Properties=species:S:1:pos:R:3:initial_magmoms:R:1 pbc="T T T"
Si      -0.83877210      -1.68474438       1.36536166       0.00000000
Si      -0.10288764      -1.30556205      -1.96889888       0.00000000
Si       1.82091249       0.95228082       1.24183008       0.00000000
Si      -1.65535722       1.83197340      -0.11301118       0.00000000
Si      -2.21405535      -0.35636004       2.65210727       0.00000000
Si       0.51414498       2.35397016       2.63390356       0.00000000
Si      -2.07586728      -0.20357613      -2.91998305       0.00000000
Si      -2.55200769      -2.76025905       0.14850221       0.00000000
Si       1.94064399      -0.55908909      -3.20198638       0.00000000
Si      -3.50880084       1.01335203       1.17347530       0.00000000
