10
Lattice="16.28999089631971 0.0 0.0 0.0 16.28999089631971 0.0 0.0 0.0 34.281931910070035" Properties=species:S:1:pos:R:3:initial_magmoms:R:1 pbc="T T T"
Si      -1.35668007      -1.35944937      -1.35605686       0.00000000
Si       1.35742941      -1.35759231       1.35742813       0.00000000
Si      -1.35736425       1.35705776       1.35814806       0.00000000
Si       1.35899325       1.35762559      -1.35705103       0.00000000
Si       2.71098180      -0.00014661      -2.71537050       0.00000000
Si       0.00047241      -2.71288773       2.71482199       0.00000000
Si       2.71445157      -2.71441899       0.00017141       0.00000000
Si       2.71422351       0.00182448       2.71519909       0.00000000
Si      -2.71372015      -0.00009774       2.71588473       0.00000000
Si       2.71435383       2.71553390       0.00054851       0.00000000
