10
Lattice="16.28999089631971 0.0 0.0 0.0 16.28999089631971 0.0 0.0 0.0 34.281931910070035" Properties=species:S:1:pos:R:3:initial_magmoms:R:1 pbc="T T T"
Si       1.44842535      -1.04581800       1.47741496       0.00000000
Si       1.34928441       1.35465034      -1.34505235       0.00000000
Si      -1.26956115       1.47264225       1.31306729       0.00000000
Si      -1.36541151      -1.36399428      -1.34587512       0.00000000
Si      -0.10464696      -2.35317195       2.76182254       0.00000000
Si       2.61922023       0.61281351       2.69843521       0.00000000
Si       2.70501966      -2.69843850       0.05138864       0.00000000
Si       2.70804960      -0.00195480      -2.70272046       0.00000000
Si      -0.00526167       2.71129850      -2.70251477       0.00000000
Si      -0.00570150      -2.71666701      -2.70309756       0.00000000
