10
Lattice="16.28999089631971 0.0 0.0 0.0 16.28999089631971 0.0 0.0 0.0 34.281931910070035" Properties=species:S:1:pos:R:3:initial_magmoms:R:1 pbc="T T T"
Si       1.35980775       1.33389036      -1.39243001       0.00000000
Si      -1.35741312      -1.37508777      -1.38910466       0.00000000
Si       1.40315544      -1.32006015       1.51265681       0.00000000
Si      -1.25659431       1.65262050       1.42602632       0.00000000
Si      -2.70501966       2.69843850      -0.05138864       0.00000000
Si       2.71293660      -2.70430290      -0.03061378       0.00000000
Si       2.74141152       2.68301187      -0.00983892       0.00000000
Si      -2.70927135      -2.72622924      -0.01570113       0.00000000
Si       0.00302994       2.69648370      -2.75410910       0.00000000
Si      -2.71072116      -0.01822851      -2.75448620       0.00000000
