10
Lattice="16.28999089631971 0.0 0.0 0.0 16.28999089631971 0.0 0.0 0.0 34.281931910070035" Properties=species:S:1:pos:R:3:initial_magmoms:R:1 pbc="T T T"
Si      -1.23360912      -0.67640967       1.92332030       0.00000000
Si       2.34004221       0.46936377       0.28882544       0.00000000
Si      -0.94975587       1.82263338      -1.32328331       0.00000000
Si      -0.08708634      -1.99889703      -1.44090469       0.00000000
Si       2.01761424      -0.61714665      -1.78406702       0.00000000
Si       0.71977365       0.88803306      -2.98026713       0.00000000
Si      -2.57605173      -2.19908484       0.72036664       0.00000000
Si      -3.19798764       1.07492823      -1.15914133       0.00000000
Si       2.46011580       2.81126534      -0.09845776       0.00000000
Si       2.68661196      -0.10901268       2.60265144       0.00000000
