10
Lattice="16.28999089631971 0.0 0.0 0.0 16.28999089631971 0.0 0.0 0.0 34.281931910070035" Properties=species:S:1:pos:R:3:initial_magmoms:R:1 pbc="T T T"
Si      -1.35412254       1.35753041       1.35310861       0.00000000
Si       1.35900954      -1.35544894       1.35273151       0.00000000
Si       1.35244467       1.34120783      -1.37527532       0.00000000
Si      -1.35216774      -1.34565567      -1.37368806       0.00000000
Si       2.59895547      -0.16148766      -2.75832235       0.00000000
Si      -2.71391400       0.00094808       2.70926831       0.00000000
Si       0.00118917      -2.71435776       2.70937116       0.00000000
Si       0.00109143       2.71507385       2.70916547       0.00000000
Si       2.71645524       0.00091713       2.70895977       0.00000000
Si      -2.71477737       2.71206020      -0.00990748       0.00000000
