10
Lattice="16.28999089631971 0.0 0.0 0.0 16.28999089631971 0.0 0.0 0.0 34.281931910070035" Properties=species:S:1:pos:R:3:initial_magmoms:R:1 pbc="T T T"
Si      -1.35019665       1.35578412      -1.35996500       0.00000000
Si      -1.35231435      -1.35243815       1.36541583       0.00000000
Si       1.36418976      -1.36056361      -1.35893654       0.00000000
Si       1.36578618       1.37979558       1.38005422       0.00000000
Si       0.20619882      -2.50232808       2.69007042       0.00000000
Si      -2.70875007       2.71365336      -0.00089133       0.00000000
Si      -2.70873378      -0.00276930      -2.71694747       0.00000000
Si      -2.71065600      -2.71679800      -0.00171410       0.00000000
Si       0.00553860       2.71285515      -2.71670749       0.00000000
Si       2.71854036       2.71326240      -0.00116559       0.00000000
