10
Lattice="16.28999089631971 0.0 0.0 0.0 16.28999089631971 0.0 0.0 0.0 34.281931910070035" Properties=species:S:1:pos:R:3:initial_magmoms:R:1 pbc="T T T"
Si      -0.13628214      -1.65203895       1.62897547       0.00000000
Si       1.53806922      -0.68504337      -1.63343212       0.00000000
Si      -1.82830815       0.44220834      -1.40627991       0.00000000
Si       0.82455093       2.04781590       0.86363091       0.00000000
Si      -1.42472340       2.77055433      -1.49177910       0.00000000
Si       0.87785181       3.18122523      -1.29393796       0.00000000
Si       3.65308137      -0.88506828      -0.55286502       0.00000000
Si      -3.79605870      -0.32493663      -0.42273074       0.00000000
Si      -0.89085123       3.02586750       2.21156295       0.00000000
Si      -0.47454399      -3.78844217       0.56050990       0.00000000
