10
Lattice="16.28999089631971 0.0 0.0 0.0 16.28999089631971 0.0 0.0 0.0 34.281931910070035" Properties=species:S:1:pos:R:3:initial_magmoms:R:1 pbc="T T T"
Si       1.28169720      -1.38530160       1.44769251       0.00000000
Si       1.83629025       0.84543471      -1.32080957       0.00000000
Si      -1.38896685      -1.25087652      -1.53407758       0.00000000
Si      -1.41613857       1.35293337       1.42553951       0.00000000
Si       3.29818743      -1.04094729      -1.10928337       0.00000000
Si       0.23641677      -2.62483865      -2.61536460       0.00000000
Si       2.66356161       2.68385895      -0.08824174       0.00000000
Si      -2.69610903      -2.70685066      -0.06180350       0.00000000
Si       2.52820800      -2.88799708       0.06464548       0.00000000
Si      -2.62102842       2.81618262      -0.10247561       0.00000000
