10
Lattice="16.28999089631971 0.0 0.0 0.0 16.28999089631971 0.0 0.0 0.0 34.281931910070035" Properties=species:S:1:pos:R:3:initial_magmoms:R:1 pbc="T T T"
Si       1.35570267      -1.35703845      -1.36027354       0.00000000
Si      -1.35892809       1.36039419      -1.35948505       0.00000000
Si       1.34923554       1.39069359       1.36270755       0.00000000
Si      -1.36959804      -1.36036161       1.38814476       0.00000000
Si       2.70976005      -2.71184517      -0.00257115       0.00000000
Si       2.71006956       2.71500543      -0.00164553       0.00000000
Si      -2.71753038      -2.71145421      -0.00229689       0.00000000
Si       2.71179630       0.00180819      -2.71814734       0.00000000
Si      -0.00324171      -2.71225242      -2.71811305       0.00000000
Si      -0.00255753       2.71694394      -2.71763311       0.00000000
