10
Lattice="16.28999089631971 0.0 0.0 0.0 16.28999089631971 0.0 0.0 0.0 34.281931910070035" Properties=species:S:1:pos:R:3:initial_magmoms:R:1 pbc="T T T"
Si      -0.35386767      -2.27779812      -0.26157129       0.00000000
Si       2.24474571       0.65085066      -0.23942515       0.00000000
Si      -0.53784693       0.97591761      -2.14296476       0.00000000
Si      -0.85489920       0.51898311       2.23645164       0.00000000
Si      -0.07936488       3.11904630      -1.29945736       0.00000000
Si      -2.42602083      -2.27882439      -1.57179317       0.00000000
Si       2.99651292      -0.35578989      -2.18753130       0.00000000
Si       2.18571075       2.95407747      -0.73438796       0.00000000
Si      -3.15747441       0.10831221       2.03861050       0.00000000
Si       3.24750924       0.44364186       1.84268915       0.00000000
