10
Lattice="16.28999089631971 0.0 0.0 0.0 16.28999089631971 0.0 0.0 0.0 34.281931910070035" Properties=species:S:1:pos:R:3:initial_magmoms:R:1 pbc="T T T"
Si       1.69735284      -0.26093322       1.57851244       0.00000000
Si      -0.82455093      -2.04781590      -0.86363091       0.00000000
Si      -1.71540216       0.97805160       1.34793203       0.00000000
Si       0.05330088       1.13340933      -2.15756887       0.00000000
Si      -2.24927433       0.72273843      -2.35541001       0.00000000
Si      -3.04499196       1.75829373      -0.42177084       0.00000000
Si       0.74934000       3.30418215      -1.61941080       0.00000000
Si       0.71351829      -2.73285927      -2.49706303       0.00000000
Si       1.56877587      -2.40942132       2.43919510       0.00000000
Si      -2.65285908      -1.60560756      -2.26991083       0.00000000
