10
Lattice="16.28999089631971 0.0 0.0 0.0 16.28999089631971 0.0 0.0 0.0 34.281931910070035" Properties=species:S:1:pos:R:3:initial_magmoms:R:1 pbc="T T T"
Si       0.69603912       2.17077282       0.53815807       0.00000000
Si      -2.30257521      -0.41067090      -0.19784114       0.00000000
Si      -0.05330088      -1.13340933       2.15756887       0.00000000
Si       0.85489920      -0.51898311      -2.23645164       0.00000000
Si      -0.87785181      -3.18122523       1.29393796       0.00000000
Si      -3.09829284       0.62488440       1.73579803       0.00000000
Si       0.13289382       3.32531028      -1.41971844       0.00000000
Si       3.06569655       1.91705607       0.55848726       0.00000000
Si       0.50103153      -2.79678123      -2.49802293       0.00000000
Si      -2.70615996      -2.73901689      -0.11234195       0.00000000
