10
Lattice="16.28999089631971 0.0 0.0 0.0 16.28999089631971 0.0 0.0 0.0 34.281931910070035" Properties=species:S:1:pos:R:3:initial_magmoms:R:1 pbc="T T T"
Si       2.28377981       0.37843299       0.49633409       0.00000000
Si      -0.21320254       0.25950947      -2.34509114       0.00000000
Si      -1.34293524       1.29682735       1.46997578       0.00000000
Si      -1.02594813      -2.15170767       0.40401279       0.00000000
Si      -0.50632971      -0.12650977       3.24838627       0.00000000
Si      -3.37240860       0.91148577       0.03123086       0.00000000
Si      -3.30912195      -1.40249799       0.25560623       0.00000000
Si       2.46143855       2.66492671       0.01408988       0.00000000
Si      -2.33649492      -0.43873272      -3.14859151       0.00000000
Si      -0.19947529       2.47972570      -3.10392213       0.00000000
