10
Lattice="16.28999089631971 0.0 0.0 0.0 16.28999089631971 0.0 0.0 0.0 34.281931910070035" Properties=species:S:1:pos:R:3:initial_magmoms:R:1 pbc="T T T"
Si       1.35571896      -1.35526284       1.35605686       0.00000000
Si      -1.33421616      -1.36120869      -1.37588554       0.00000000
Si      -1.35739683       1.36058967       1.35701675       0.00000000
Si       1.35540945       1.35373158      -1.37120605       0.00000000
Si      -2.70778896       0.04667085      -2.63612777       0.00000000
Si      -0.00117288      -2.71336014       2.71492483       0.00000000
Si       2.71379997       0.00104256       2.71492483       0.00000000
Si       2.71437012      -2.71539639      -0.00575937       0.00000000
Si       2.71254564       2.71770957      -0.00267399       0.00000000
Si      -2.71816569      -2.71269225      -0.00613647       0.00000000
