10
Lattice="16.28999089631971 0.0 0.0 0.0 16.28999089631971 0.0 0.0 0.0 34.281931910070035" Properties=species:S:1:pos:R:3:initial_magmoms:R:1 pbc="T T T"
Si      -1.05384897      -1.70033391       1.33548769       0.00000000
Si      -1.40315544       1.32006015      -1.51265681       0.00000000
Si       1.30978116      -1.38424275      -1.54327059       0.00000000
Si       1.33890768       1.50203574       1.54402479       0.00000000
Si       0.84914883      -3.33611055       1.32797994       0.00000000
Si       2.68643277      -2.64583809      -0.13342535       0.00000000
Si       2.77850385       2.69505018       0.06774114       0.00000000
Si      -2.77803144      -2.72228706      -0.04713768       0.00000000
Si      -0.19111428       3.12613245       2.33058988       0.00000000
Si      -2.29581486       1.74438207       2.67375221       0.00000000
