10
Lattice="16.28999089631971 0.0 0.0 0.0 16.28999089631971 0.0 0.0 0.0 34.281931910070035" Properties=species:S:1:pos:R:3:initial_magmoms:R:1 pbc="T T T"
Si      -2.22164649       0.68229036       0.01847797       0.00000000
Si       0.44033499      -1.75440042       1.48149452       0.00000000
Si       1.06443747       1.79074341       1.08214407       0.00000000
Si       0.45087462      -1.11983976      -2.04769522       0.00000000
Si      -3.18759462      -1.48908519       0.25975434       0.00000000
Si       0.84983301       1.08220986       3.35143782       0.00000000
Si       3.34094868       1.52788797       0.60243673       0.00000000
Si       1.71255141       0.39846969      -3.29991205       0.00000000
Si      -0.20230551      -1.02915333       3.59768507       0.00000000
Si       2.70541062      -1.91936925       2.04656391       0.00000000
