10
Lattice="16.28999089631971 0.0 0.0 0.0 16.28999089631971 0.0 0.0 0.0 34.281931910070035" Properties=species:S:1:pos:R:3:initial_magmoms:R:1 pbc="T T T"
Si      -1.87771572       1.09586088       0.73603349       0.00000000
Si       2.04164199       0.60848037       0.95663784       0.00000000
Si      -0.33886458       0.65689425      -2.22575567       0.00000000
Si       0.10326231      -2.33877159       0.17881466       0.00000000
Si       3.44214216      -0.52193160      -0.50966977       0.00000000
Si       2.39000364      -2.63329479      -0.26342251       0.00000000
Si      -3.52145817      -0.01713708      -0.77391505       0.00000000
Si      -0.89816544       3.27808557       1.21886049       0.00000000
Si       2.12753916      -0.34792182       3.14554042       0.00000000
Si      -1.22235273      -3.37139469      -1.36860405       0.00000000
