10
Lattice="16.28999089631971 0.0 0.0 0.0 16.28999089631971 0.0 0.0 0.0 34.281931910070035" Properties=species:S:1:pos:R:3:initial_magmoms:R:1 pbc="T T T"
Si      -0.56314530       1.15453746      -1.95787651       0.00000000
Si      -0.69603912      -2.17077282      -0.53815807       0.00000000
Si       2.36965743      -0.25371675       0.02032920       0.00000000
Si      -1.42736238       1.14196158       1.65910930       0.00000000
Si      -2.84988663       1.44906066      -1.51563934       0.00000000
Si       2.98901952       1.05119370       1.83788968       0.00000000
Si      -3.53321955       0.78597621       0.65673934       0.00000000
Si      -0.74934000      -3.30418215       1.61941080       0.00000000
Si       1.46877156       2.93926986       1.92578860       0.00000000
Si      -0.82560978       3.43991043       1.45108642       0.00000000
