10
Lattice="16.28999089631971 0.0 0.0 0.0 16.28999089631971 0.0 0.0 0.0 34.281931910070035" Properties=species:S:1:pos:R:3:initial_magmoms:R:1 pbc="T T T"
Si      -1.35624024       1.35788255       1.36150769       0.00000000
Si       1.35661491      -1.36041048       1.35993072       0.00000000
Si       1.35689184       1.35306151      -1.37241963       0.00000000
Si      -1.35713619      -1.36397799      -1.36853206       0.00000000
Si      -0.11629431       2.55184383      -2.74954618       0.00000000
Si       0.08649990      -2.65647546      -2.76699912       0.00000000
Si      -2.71524978       2.71333149       0.00877618       0.00000000
Si      -2.71254564      -2.71770957       0.00267399       0.00000000
Si       0.00120546       2.71424862       2.71773595       0.00000000
Si      -2.71406061      -0.00102627       2.71814734       0.00000000
