10
Lattice="16.28999089631971 0.0 0.0 0.0 16.28999089631971 0.0 0.0 0.0 34.281931910070035" Properties=species:S:1:pos:R:3:initial_magmoms:R:1 pbc="T T T"
Si      -1.35392706       1.35487092       1.35955362       0.00000000
Si       1.35327546      -1.35588186       1.36130199       0.00000000
Si       1.35708732       1.35623776      -1.35739385       0.00000000
Si      -1.35755973      -1.35840681      -1.35732529       0.00000000
Si      -2.71192662      -2.71365336      -0.00006856       0.00000000
Si      -2.71467963       2.71381693       0.00044567       0.00000000
Si       2.71510317       2.71398635      -0.00034282       0.00000000
Si      -0.00026064       2.71465587      -2.71495911       0.00000000
Si       2.71482624      -0.00097740      -2.71513052       0.00000000
Si      -2.71552671      -0.00061902      -2.71454773       0.00000000
