10
Lattice="16.28999089631971 0.0 0.0 0.0 16.28999089631971 0.0 0.0 0.0 34.281931910070035" Properties=species:S:1:pos:R:3:initial_magmoms:R:1 pbc="T T T"
Si      -1.35474448      -1.34804637       1.36428452       0.00000000
Si       1.35443795       1.36590021       1.36880974       0.00000000
Si      -1.38361036       1.30647429      -1.42117542       0.00000000
Si       1.29957649      -1.39908294      -1.43303012       0.00000000
Si       0.32466560       2.30115798      -2.67012998       0.00000000
Si       2.14591855       0.52569459      -2.91658639       0.00000000
Si      -2.25900238      -0.40210236      -2.91902041       0.00000000
Si      -0.53408686      -2.38685967      -2.80561572       0.00000000
Si       2.72237278      -2.69985573      -0.00506687       0.00000000
Si      -2.72070985      -2.70420516      -0.01132333       0.00000000
