10
Lattice="16.28999089631971 0.0 0.0 0.0 16.28999089631971 0.0 0.0 0.0 34.281931910070035" Properties=species:S:1:pos:R:3:initial_magmoms:R:1 pbc="T T T"
Si       2.30164668       0.17285565       0.52537090       0.00000000
Si       0.37323648      -1.40688585      -1.86942907       0.00000000
Si      -1.08794394      -0.94770333       1.91060170       0.00000000
Si      -0.80887995       2.23106930      -0.36085182       0.00000000
Si       2.41220691      -1.41224526       2.17172732       0.00000000
Si      -0.42860619      -0.10314828      -3.68020173       0.00000000
Si      -3.04609968       0.32106843       2.20971172       0.00000000
Si       2.72754873       2.23932833       1.50854297       0.00000000
Si      -0.63882864       3.36658004       1.73569518       0.00000000
Si       0.71493552      -0.86407047       3.70248500       0.00000000
