10
Lattice="16.28999089631971 0.0 0.0 0.0 16.28999089631971 0.0 0.0 0.0 34.281931910070035" Properties=species:S:1:pos:R:3:initial_magmoms:R:1 pbc="T T T"
Si       1.69727139      -0.54817479      -1.53075768       0.00000000
Si       0.33826185       2.13640322       1.06846557       0.00000000
Si       0.50854122      -1.92741651       1.57779252       0.00000000
Si      -1.80287946      -0.08363286      -1.79188330       0.00000000
Si       1.13692797      -2.75323806      -2.05410594       0.00000000
Si       1.58671116       1.03692612      -3.17711410       0.00000000
Si       0.47454399       3.78844217      -0.56050990       0.00000000
Si      -0.71493552       0.86407047      -3.70248500       0.00000000
Si       1.22282514      -3.70964025       0.13479663       0.00000000
Si       3.88197216      -0.64687590      -0.72530324       0.00000000
