10
Lattice="16.28999089631971 0.0 0.0 0.0 16.28999089631971 0.0 0.0 0.0 34.281931910070035" Properties=species:S:1:pos:R:3:initial_magmoms:R:1 pbc="T T T"
Si      -1.47318615       1.19878232      -1.37712654       0.00000000
Si      -1.35689184      -1.35306151       1.37241963       0.00000000
Si       1.36257705       1.36066420       1.37067125       0.00000000
Si       1.28370087      -1.31478001      -1.57312331       0.00000000
Si       2.71539639      -2.70413782      -0.02771353       0.00000000
Si      -2.71969695       2.70147781       0.00592049       0.00000000
Si       2.71262709       2.71441207      -0.01548516       0.00000000
Si      -2.71402803      -2.71703950       0.00388757       0.00000000
Si      -0.00027693      -2.71347199       2.73235035       0.00000000
Si      -2.71313208       0.00482104       2.73392732       0.00000000
