10
Lattice="16.28999089631971 0.0 0.0 0.0 16.28999089631971 0.0 0.0 0.0 34.281931910070035" Properties=species:S:1:pos:R:3:initial_magmoms:R:1 pbc="T T T"
Si      -1.35744570      -1.35636606      -1.35622827       0.00000000
Si       1.35672894       1.35682505      -1.35732529       0.00000000
Si      -1.35718506       1.35687392       1.35694819       0.00000000
Si       1.35734796      -1.35841810       1.35756526       0.00000000
Si      -2.71645524      -0.00091713      -2.70895977       0.00000000
Si      -0.00079821       2.71519928       2.71399922       0.00000000
Si      -2.71536381       2.71415672       0.00020569       0.00000000
Si       0.00026064      -2.71465587       2.71495911       0.00000000
Si      -2.71441899      -0.00083893       2.71540478       0.00000000
Si       2.71546155       2.71440107      -0.00037710       0.00000000
