10
Lattice="16.28999089631971 0.0 0.0 0.0 16.28999089631971 0.0 0.0 0.0 34.281931910070035" Properties=species:S:1:pos:R:3:initial_magmoms:R:1 pbc="T T T"
Si      -0.03719007      -0.32642621       2.32997280       0.00000000
Si       2.01293901       1.05875226      -0.61083580       0.00000000
Si       0.29271501      -2.21710877      -0.75039763       0.00000000
Si      -1.78479756       1.42045542      -0.74607810       0.00000000
Si       1.64783124       2.78466147       0.99691914       0.00000000
Si      -0.17194095      -1.57870367      -3.07406255       0.00000000
Si       2.78221797      -2.39263352      -0.16301068       0.00000000
Si      -1.54929303      -2.04842582       2.64495537       0.00000000
Si       3.63846924      -0.30832802       0.58203897       0.00000000
Si      -1.05477750       1.57882680       3.25572261       0.00000000
