10
Lattice="16.28999089631971 0.0 0.0 0.0 16.28999089631971 0.0 0.0 0.0 34.281931910070035" Properties=species:S:1:pos:R:3:initial_magmoms:R:1 pbc="T T T"
Si       1.90346990      -1.09116936      -0.86668200       0.00000000
Si      -0.00184077       2.00101473      -1.25667348       0.00000000
Si      -1.32901965      -1.98993753      -0.12183805       0.00000000
Si      -0.18731871       0.96759342       2.21529968       0.00000000
Si      -1.26946341      -2.65940929       2.26847098       0.00000000
Si       1.88974265      -3.31138559      -0.10785102       0.00000000
Si       2.25675211       2.51116866      -1.83199318       0.00000000
Si      -2.46019725       0.68201343       2.87317032       0.00000000
Si       3.86578709      -0.14506245       0.09214988       0.00000000
Si       1.59946623      -1.66759101      -3.23083391       0.00000000
