10
Lattice="16.28999089631971 0.0 0.0 0.0 16.28999089631971 0.0 0.0 0.0 34.281931910070035" Properties=species:S:1:pos:R:3:initial_magmoms:R:1 pbc="T T T"
Si      -1.73859912      -0.57607956      -1.41910136       0.00000000
Si      -1.18721520       2.07930447      -0.45262460       0.00000000
Si      -0.00332316      -2.41924419       1.13579532       0.00000000
Si       1.69207488       1.85570793      -1.11731735       0.00000000
Si      -1.27637037       2.04991731       1.99740360       0.00000000
Si      -2.04879330      -1.77334569       2.11673907       0.00000000
Si       0.47537478       1.41605712      -3.21218453       0.00000000
Si      -3.25461168      -1.53876969       0.11107352       0.00000000
Si      -1.67707179       0.18067239       3.44742728       0.00000000
Si       3.58134251       1.06132608       1.07477345       0.00000000
