10
Lattice="16.28999089631971 0.0 0.0 0.0 16.28999089631971 0.0 0.0 0.0 34.281931910070035" Properties=species:S:1:pos:R:3:initial_magmoms:R:1 pbc="T T T"
Si       1.33382520       1.63465263      -1.20058821       0.00000000
Si       1.18721520      -2.07930447       0.45262460       0.00000000
Si      -0.08915517      -0.02938716       2.45002820       0.00000000
Si      -2.59082676       0.66824838      -0.72194361       0.00000000
Si      -0.55138392      -2.65538403      -0.96647676       0.00000000
Si       2.87929008      -0.22359654      -0.66469275       0.00000000
Si      -1.46088720       2.82289410      -0.70517973       0.00000000
Si       1.66258998      -0.66324735      -2.75955993       0.00000000
Si      -0.49202316       2.08609740      -2.82695825       0.00000000
Si      -0.45721143       3.23599221       1.49143628       0.00000000
