10
Lattice="16.28999089631971 0.0 0.0 0.0 16.28999089631971 0.0 0.0 0.0 34.281931910070035" Properties=species:S:1:pos:R:3:initial_magmoms:R:1 pbc="T T T"
Si      -1.35733167      -1.35775521       1.35612542       0.00000000
Si      -1.35775521       1.35702216      -1.35777095       0.00000000
Si       1.35777150      -1.35793440      -1.35746242       0.00000000
Si       1.35871632       1.35812988       1.35756526       0.00000000
Si       2.71469592      -0.00073305      -2.71379353       0.00000000
Si      -0.00239463       2.71327869      -2.71543906       0.00000000
Si       2.71477830       2.71454931       0.00003428       0.00000000
Si       2.71248195      -0.00180819       2.71711888       0.00000000
Si      -2.71510317       2.71487511       0.00000000       0.00000000
Si       2.71499062      -2.71511946      -0.00003428       0.00000000
