10
Lattice="16.28999089631971 0.0 0.0 0.0 16.28999089631971 0.0 0.0 0.0 34.281931910070035" Properties=species:S:1:pos:R:3:initial_magmoms:R:1 pbc="T T T"
Si       0.84041317       1.74151503       1.33219662       0.00000000
Si      -1.83278790      -0.79951320      -1.32499741       0.00000000
Si       0.81685034       1.79673813      -1.41762724       0.00000000
Si       1.61515091      -1.86867477       0.00641072       0.00000000
Si      -1.35679410      -2.68066611       1.69925347       0.00000000
Si       2.05578075       0.38506302      -2.79127074       0.00000000
Si      -0.68064507      -2.32512057      -2.77868926       0.00000000
Si       3.40904807      -0.90407871      -1.31687259       0.00000000
Si       2.03596071      -2.28071403       2.34618817       0.00000000
Si      -3.18264246      -2.22922134       0.07288343       0.00000000
