10
Lattice="16.28999089631971 0.0 0.0 0.0 16.28999089631971 0.0 0.0 0.0 34.281931910070035" Properties=species:S:1:pos:R:3:initial_magmoms:R:1 pbc="T T T"
Si      -0.15032412       1.73626965      -1.59613336       0.00000000
Si       2.03691693      -1.11808044       0.45570998       0.00000000
Si      -0.17513379       1.02503196       2.16291686       0.00000000
Si      -2.05679169      -1.09317303      -0.65475098       0.00000000
Si      -2.42484795       2.17220634      -1.61334290       0.00000000
Si      -3.68652474       0.65389689      -0.36112607       0.00000000
Si       3.31085195       0.39956112       1.75067640       0.00000000
Si      -1.96763652      -1.06378587      -3.10477918       0.00000000
Si       2.80092119      -2.08176426      -1.57738113       0.00000000
Si       1.64263377      -3.03163416       1.75708712       0.00000000
