10
Lattice="16.28999089631971 0.0 0.0 0.0 16.28999089631971 0.0 0.0 0.0 34.281931910070035" Properties=species:S:1:pos:R:3:initial_magmoms:R:1 pbc="T T T"
Si      -1.35681531      -1.35799956       1.35698247       0.00000000
Si      -1.35671757       1.35707103      -1.35801093       0.00000000
Si       1.35750987      -1.35764444      -1.35801093       0.00000000
Si       1.35936204       1.35827649       1.35639968       0.00000000
Si      -2.71468455       2.71454931      -0.00054851       0.00000000
Si       2.71500769      -0.00065160      -2.71495911       0.00000000
Si       0.00007124      -2.71511420      -2.71509624       0.00000000
Si       2.71521946       2.71513575      -0.00020569       0.00000000
Si      -2.71545018      -0.00050499      -2.71495911       0.00000000
Si      -2.71483116      -2.71574814      -0.00006856       0.00000000
