10
Lattice="16.28999089631971 0.0 0.0 0.0 16.28999089631971 0.0 0.0 0.0 34.281931910070035" Properties=species:S:1:pos:R:3:initial_magmoms:R:1 pbc="T T T"
Si       1.22582902      -0.33098022       1.97546315       0.00000000
Si      -0.05038986       2.35310679      -0.24676148       0.00000000
Si      -2.25859288      -0.51015393       0.57531970       0.00000000
Si       1.01556095      -1.02179025      -1.98821603       0.00000000
Si      -3.26135641      -0.30294513      -1.50679460       0.00000000
Si       1.60903498      -2.65623111       1.92414307       0.00000000
Si      -2.34105286       2.87244828      -0.05622240       0.00000000
Si       3.40632697       0.36531954       1.46874163       0.00000000
Si      -0.35328221      -3.60233802       0.96531118       0.00000000
Si      -2.25675211      -2.51116866       1.83199318       0.00000000
