10
Lattice="16.28999089631971 0.0 0.0 0.0 16.28999089631971 0.0 0.0 0.0 34.281931910070035" Properties=species:S:1:pos:R:3:initial_magmoms:R:1 pbc="T T T"
Si       2.33334702       0.18011853      -0.44744803       0.00000000
Si      -1.51330516       0.55387629      -1.76603471       0.00000000
Si      -0.54688788      -2.45706957       0.16115945       0.00000000
Si      -0.29820474       1.91746332       1.63689460       0.00000000
Si      -1.14454680      -0.00731421       3.12045087       0.00000000
Si      -2.97821015      -0.99509094       1.74786528       0.00000000
Si       0.62623647       3.53245392      -0.45454439       0.00000000
Si      -0.84348154       2.83099023      -2.16517947       0.00000000
Si       3.21284412      -1.11418713       1.46637618       0.00000000
Si       2.69234604       2.55836079      -0.82105273       0.00000000
