10
Lattice="16.28999089631971 0.0 0.0 0.0 16.28999089631971 0.0 0.0 0.0 34.281931910070035" Properties=species:S:1:pos:R:3:initial_magmoms:R:1 pbc="T T T"
Si      -1.35618160      -1.35513252       1.35698247       0.00000000
Si       1.35687555      -1.35726651      -1.35770239       0.00000000
Si      -1.35764933       1.35718506      -1.35735957       0.00000000
Si       1.35824391       1.35982404       1.35715388       0.00000000
Si      -0.00146610       2.71249677       2.71437632       0.00000000
Si       0.00109143       2.71326240      -2.71372496       0.00000000
Si       0.00009774      -2.71314837      -2.71502768       0.00000000
Si      -2.71499633      -0.00045612      -2.71358784       0.00000000
Si      -0.00201996      -2.71264338       2.71619327       0.00000000
Si      -2.71470162      -2.71484253       0.00017141       0.00000000
