10
Lattice="16.28999089631971 0.0 0.0 0.0 16.28999089631971 0.0 0.0 0.0 34.281931910070035" Properties=species:S:1:pos:R:3:initial_magmoms:R:1 pbc="T T T"
Si      -1.35376563       1.35993807      -1.35955362       0.00000000
Si       1.36102870      -1.35360126      -1.36034210       0.00000000
Si      -1.35361902      -1.35565380       1.36911828       0.00000000
Si       1.38280680       1.35452979       1.35653680       0.00000000
Si      -2.50576185       0.16995357       2.82281013       0.00000000
Si      -2.71189551      -2.71187775       0.00270827       0.00000000
Si       2.71519034      -2.71111212      -0.00113130       0.00000000
Si      -2.71248195       0.00180819      -2.71711888       0.00000000
Si       2.71574420       2.71402803      -0.00294825       0.00000000
Si       0.00250867      -2.71331127      -2.71715316       0.00000000
