10
Lattice="16.28999089631971 0.0 0.0 0.0 16.28999089631971 0.0 0.0 0.0 34.281931910070035" Properties=species:S:1:pos:R:3:initial_magmoms:R:1 pbc="T T T"
Si       0.42080980      -0.41203926       2.33977744       0.00000000
Si       1.79389715       0.96459606      -1.32328331       0.00000000
Si      -0.93644398      -1.79730828      -1.36500445       0.00000000
Si      -1.61515091       1.86867477      -0.00641072       0.00000000
Si      -2.97194501      -0.81199134       1.69284274       0.00000000
Si       0.44062984       2.25373779      -2.79768146       0.00000000
Si      -2.29579598      -0.45644580      -2.78509999       0.00000000
Si      -1.42648013      -2.67024051       2.22873820       0.00000000
Si       1.59144503      -2.47528179       2.46195832       0.00000000
Si      -3.44793881       1.06916157      -1.33140813       0.00000000
