10
Lattice="16.28999089631971 0.0 0.0 0.0 16.28999089631971 0.0 0.0 0.0 34.281931910070035" Properties=species:S:1:pos:R:3:initial_magmoms:R:1 pbc="T T T"
Si       1.84326726       1.15067673      -0.76366474       0.00000000
Si       0.80277609      -0.41246280       2.15880302       0.00000000
Si      -2.05674512       1.04958099       0.38004971       0.00000000
Si      -0.19829654      -1.76428845      -2.01166489       0.00000000
Si      -3.10756415      -0.99883764       0.05063444       0.00000000
Si       3.15905943      -0.93802707      -0.71272176       0.00000000
Si       0.97872438       2.11445829      -2.70707427       0.00000000
Si       3.09090207      -0.75891852       1.63823160       0.00000000
Si      -0.14209115       1.50545664       3.30731695       0.00000000
Si      -2.60659778       2.81525409      -1.02952127       0.00000000
