10
Lattice="16.28999089631971 0.0 0.0 0.0 16.28999089631971 0.0 0.0 0.0 34.281931910070035" Properties=species:S:1:pos:R:3:initial_magmoms:R:1 pbc="T T T"
Si       1.44129685      -0.80529615      -1.60165275       0.00000000
Si      -0.03154233      -0.99766476       2.13579983       0.00000000
Si      -2.04468889      -0.17982531      -1.18941229       0.00000000
Si       0.41733188       2.28442815       0.49602555       0.00000000
Si      -2.32220533      -0.47832327       2.32633892       0.00000000
Si      -2.66600578       2.09676735      -1.06332328       0.00000000
Si      -3.30154384      -1.35048987       0.38080391       0.00000000
Si       1.89046102       1.11778722      -2.84029393       0.00000000
Si       0.94559377       3.03570666      -1.69178000       0.00000000
Si      -1.78786075       3.08586357       0.88450862       0.00000000
