10
Lattice="16.28999089631971 0.0 0.0 0.0 16.28999089631971 0.0 0.0 0.0 34.281931910070035" Properties=species:S:1:pos:R:3:initial_magmoms:R:1 pbc="T T T"
Si      -1.35606198      -1.35641943       1.35753098       0.00000000
Si       1.35726462      -1.35764118      -1.35759954       0.00000000
Si      -1.35749550       1.35775521      -1.35783952       0.00000000
Si       1.35896530       1.35778779       1.35797665       0.00000000
Si       2.71344785      -0.00232947       2.71413635       0.00000000
Si      -0.00008238      -2.71528236      -2.71382781       0.00000000
Si      -2.71477830      -2.71454931      -0.00003428       0.00000000
Si       2.71491395      -2.71482624      -0.00023997       0.00000000
Si       2.71600538      -0.00156384      -2.71396494       0.00000000
Si      -2.71523442       2.71497037      -0.00010285       0.00000000
