10
Lattice="16.28999089631971 0.0 0.0 0.0 16.28999089631971 0.0 0.0 0.0 34.281931910070035" Properties=species:S:1:pos:R:3:initial_magmoms:R:1 pbc="T T T"
Si      -1.35514769       1.35681758      -1.36274184       0.00000000
Si       1.36103618      -1.35811359      -1.36171338       0.00000000
Si       1.34414834       1.37198194       1.36634144       0.00000000
Si      -1.35803102      -1.35345465       1.39520684       0.00000000
Si       0.14365092      -2.66605398       2.72757487       0.00000000
Si      -2.71142051       2.71579454      -0.00020569       0.00000000
Si      -2.71697540      -2.71305063      -0.00109702       0.00000000
Si       2.71561647       2.71525697      -0.00161125       0.00000000
Si      -2.71316354      -0.00093101      -2.71979287       0.00000000
Si       2.71551873      -2.71823085      -0.00555368       0.00000000
