10
Lattice="16.28999089631971 0.0 0.0 0.0 16.28999089631971 0.0 0.0 0.0 34.281931910070035" Properties=species:S:1:pos:R:3:initial_magmoms:R:1 pbc="T T T"
Si       1.23893041      -1.41167511      -1.37364350       0.00000000
Si      -1.50168194       1.31259933      -1.33236803       0.00000000
Si      -0.81685034      -1.79673813       1.41762724       0.00000000
Si       0.89619696       1.91616012       1.38670492       0.00000000
Si       0.02356283      -0.05522310       2.74982386       0.00000000
Si      -2.64963824      -2.59625133       0.09262983       0.00000000
Si       2.59219773      -2.70081684       0.10075465       0.00000000
Si       2.57186781      -0.05217687      -2.73312855       0.00000000
Si      -0.14365092       2.66605398      -2.72757487       0.00000000
Si       2.66771817       2.78445966      -0.07418614       0.00000000
