10
Lattice="16.28999089631971 0.0 0.0 0.0 16.28999089631971 0.0 0.0 0.0 34.281931910070035" Properties=species:S:1:pos:R:3:initial_magmoms:R:1 pbc="T T T"
Si       1.00812294       1.87524031       0.94532480       0.00000000
Si       1.39872456      -1.78292421      -0.55961857       0.00000000
Si      -0.63677610      -0.96576894       2.11553920       0.00000000
Si      -1.33480260       1.12242240      -1.73703218       0.00000000
Si      -2.12112416       0.69313365       2.61046773       0.00000000
Si      -0.93248847       2.69390078       2.17878940       0.00000000
Si       2.40894891       1.01212769       2.57358035       0.00000000
Si      -0.56565396      -0.03158631      -3.64208020       0.00000000
Si       0.05628195      -3.30559938      -1.76257223       0.00000000
Si       2.63233368      -1.10651454      -2.48293887       0.00000000
