10
Lattice="10.86 0.0 0.0 0.0 10.86 0.0 0.0 0.0 10.86" Properties=species:S:1:pos:R:3:initial_magmoms:R:1 pbc="T T T"
Si       1.45576128      -1.17773442      -1.34737848       0.00000000
Si      -1.25923872       1.53726558      -1.34737848       0.00000000
Si       1.45576128       1.53726558       1.36762152       0.00000000
Si      -2.88293904       0.02725860      -1.96807092       0.00000000
Si       0.36735036      -2.37992556      -2.87778054       0.00000000
Si       2.81326128      -2.53523442       0.01012152       0.00000000
Si      -2.61673872       2.89476558       0.01012152       0.00000000
Si       2.81326128       0.17976558      -2.70487848       0.00000000
Si       2.81326128       0.17976558       2.72512152       0.00000000
Si      -2.83392786       0.06323778       2.76335958       0.00000000
