10
Lattice="16.28999089631971 0.0 0.0 0.0 16.28999089631971 0.0 0.0 0.0 34.40246978574605" Properties=species:S:1:pos:R:3:initial_magmoms:R:1 pbc="T T T"
Si      -1.53204911       1.32983415       1.16235690       0.00000000
Si      -1.39882949      -1.82690721      -0.46838989       0.00000000
Si       1.64149443      -0.76101993       1.52915623       0.00000000
Si       1.19992140       0.44111691      -2.07202751       0.00000000
Si       2.28120273      -2.37451185      -0.07602950       0.00000000
Si       0.20192595      -3.56529456      -0.41310509       0.00000000
Si      -2.78505962      -0.27383490       2.45251904       0.00000000
Si       3.13266474      -0.99434160      -1.76501970       0.00000000
Si       3.43235187       0.79706970       1.38387452       0.00000000
Si       1.37368683       2.83504644      -2.23420084       0.00000000
