10
Lattice="16.28999089631971 0.0 0.0 0.0 16.28999089631971 0.0 0.0 0.0 34.40246978574605" Properties=species:S:1:pos:R:3:initial_magmoms:R:1 pbc="T T T"
Si       1.29586950      -1.35658233      -1.39557137       0.00000000
Si      -0.91638906      -1.71839952       1.34041183       0.00000000
Si       1.74495222       1.05740019       1.37276049       0.00000000
Si      -1.84218397       1.23328332      -1.55399483       0.00000000
Si      -2.31124823      -0.32498550       2.75576807       0.00000000
Si       0.39620538       2.43207600       2.75035656       0.00000000
Si      -0.39102516      -2.12597532      -3.02315312       0.00000000
Si      -2.64263615      -1.03120587      -2.49624460       0.00000000
Si      -2.68363808       2.76631634       0.06323177       0.00000000
Si      -2.21974789      -3.21250203      -0.00588283       0.00000000
