10
Lattice="16.28999089631971 0.0 0.0 0.0 16.28999089631971 0.0 0.0 0.0 34.40246978574605" Properties=species:S:1:pos:R:3:initial_magmoms:R:1 pbc="T T T"
Si      -1.96563515       0.55749334       1.09816185       0.00000000
Si      -0.81836303      -1.43345484      -1.68909341       0.00000000
Si       0.39368369       1.76343064      -1.54849043       0.00000000
Si       0.28741262      -0.98021817       2.33747712       0.00000000
Si      -0.51303956      -3.24470736       1.39522734       0.00000000
Si      -2.07137354      -3.03712389      -0.39893126       0.00000000
Si      -1.95942866       0.00089595      -3.21986656       0.00000000
Si       1.42940189       3.52537496      -0.46188782       0.00000000
Si       2.15442255       1.16139296      -3.02091696       0.00000000
Si      -0.55404149       0.55281485       3.95470372       0.00000000
