10
Lattice="16.28999089631971 0.0 0.0 0.0 16.28999089631971 0.0 0.0 0.0 34.40246978574605" Properties=species:S:1:pos:R:3:initial_magmoms:R:1 pbc="T T T"
Si      -1.35597960      -1.35594593      -1.35735020       0.00000000
Si      -1.35345465       1.35821785       1.35786624       0.00000000
Si       1.35940050       1.35829930      -1.35745341       0.00000000
Si       1.36042677      -1.35412321       1.36075605       0.00000000
Si      -2.71237785      -2.71468030      -0.00106648       0.00000000
Si      -2.71330801       0.00148728      -2.71528525       0.00000000
Si       0.00205254      -2.71391467      -2.71521645       0.00000000
Si      -2.71328846       2.71611967      -0.00024082       0.00000000
Si       0.00206883       2.71624999      -2.71507884       0.00000000
Si       2.71658556       0.00110609      -2.71507884       0.00000000
