10
Lattice="16.28999089631971 0.0 0.0 0.0 16.28999089631971 0.0 0.0 0.0 34.40246978574605" Properties=species:S:1:pos:R:3:initial_magmoms:R:1 pbc="T T T"
Si      -1.04757732      -1.52120907       1.47022477       0.00000000
Si      -1.27734777       1.25046927      -1.57116167       0.00000000
Si       0.86763798       1.77220539       1.52041800       0.00000000
Si       1.45526715      -1.45622011      -1.53937377       0.00000000
Si       2.58010794       2.66833458      -0.01995344       0.00000000
Si      -2.64710871       2.64241719      -0.16385906       0.00000000
Si      -2.55463038      -2.81199291       0.00839421       0.00000000
Si      -0.90344340       3.59163549       1.07304803       0.00000000
Si       0.09930384       2.60855028      -2.94836211       0.00000000
Si      -2.61412146      -0.10761174      -2.94784608       0.00000000
