10
Lattice="16.28999089631971 0.0 0.0 0.0 16.28999089631971 0.0 0.0 0.0 34.40246978574605" Properties=species:S:1:pos:R:3:initial_magmoms:R:1 pbc="T T T"
Si       1.43332452      -0.58276890       1.72074370       0.00000000
Si      -0.03904713      -1.53537552      -1.80723155       0.00000000
Si       0.39513024       2.20535323      -0.78740417       0.00000000
Si      -2.02129578      -0.30714210       1.24213627       0.00000000
Si      -2.39902830      -1.44918513      -2.12996130       0.00000000
Si      -1.19614212       2.32016515      -2.51083126       0.00000000
Si      -2.19506121      -2.70107163       1.40430960       0.00000000
Si      -3.08157278       0.85033637      -1.97201948       0.00000000
Si       1.20809898       1.03101691       3.44578770       0.00000000
Si       3.65892948      -0.59878197       1.14068333       0.00000000
