10
Lattice="16.28999089631971 0.0 0.0 0.0 16.28999089631971 0.0 0.0 0.0 34.40246978574605" Properties=species:S:1:pos:R:3:initial_magmoms:R:1 pbc="T T T"
Si      -0.17365140       1.01226386      -2.10718685       0.00000000
Si       0.39648231      -2.31728901      -0.25175741       0.00000000
Si       1.74198744       1.59270914       0.24711308       0.00000000
Si      -1.82055411      -0.32225692       1.48904293       0.00000000
Si       1.49452605      -2.59923633       1.84197807       0.00000000
Si       1.24509357      -0.33191689      -3.40629364       0.00000000
Si       1.45523457      -2.46052698      -2.35075648       0.00000000
Si       0.62029062       3.46615688       1.32769526       0.00000000
Si      -1.76857272      -3.34092003      -0.10196898       0.00000000
Si      -2.97401643       1.68989528       1.78872301       0.00000000
