10
Lattice="16.28999089631971 0.0 0.0 0.0 16.28999089631971 0.0 0.0 0.0 34.40246978574605" Properties=species:S:1:pos:R:3:initial_magmoms:R:1 pbc="T T T"
Si       1.15346232      -2.01215220      -0.29968008       0.00000000
Si      -1.05164982      -0.11934054      -2.10677402       0.00000000
Si       1.20262554       2.02805613      -0.15130215       0.00000000
Si      -1.70583993       0.54152847       1.67447235       0.00000000
Si      -2.47003641       2.52501516       0.65333767       0.00000000
Si       1.36111095      -2.70124757       1.95828226       0.00000000
Si       1.33938009       2.61052137       2.11386201       0.00000000
Si      -0.57620988       3.49115877      -0.79586718       0.00000000
Si      -0.54848430       1.79981694       3.26484579       0.00000000
Si       2.97401643      -1.68989528      -1.78872301       0.00000000
