10
Lattice="16.28999089631971 0.0 0.0 0.0 16.28999089631971 0.0 0.0 0.0 34.40246978574605" Properties=species:S:1:pos:R:3:initial_magmoms:R:1 pbc="T T T"
Si       1.34939844       1.36078515       1.34568776       0.00000000
Si       1.35653346      -1.35847197      -1.35676536       0.00000000
Si      -1.35798327       1.35658233      -1.35817586       0.00000000
Si      -1.37665161      -1.35808101       1.37720044       0.00000000
Si      -0.03241710       2.70844056       2.68552710       0.00000000
Si       2.71450044       2.71176372       0.00233937       0.00000000
Si       2.48080410       0.05978430       2.92840867       0.00000000
Si       2.71410948      -0.00032580      -2.71435638       0.00000000
Si      -0.00048870       2.71379997      -2.71545726       0.00000000
Si      -2.71342530      -2.71616202       0.00051604       0.00000000
