10
Lattice="16.28999089631971 0.0 0.0 0.0 16.28999089631971 0.0 0.0 0.0 34.40246978574605" Properties=species:S:1:pos:R:3:initial_magmoms:R:1 pbc="T T T"
Si       0.66355686       2.17629513       0.62499002       0.00000000
Si       1.77883542      -1.46310264       0.64456503       0.00000000
Si       0.64563786      -0.25953228      -2.41398825       0.00000000
Si      -1.89382653      -0.96614361       1.44920485       0.00000000
Si       1.91558997      -0.88063740       2.90972919       0.00000000
Si       0.57620988      -3.49115877       0.79586718       0.00000000
Si      -1.15613388       2.52372825       2.48798801       0.00000000
Si      -1.18242594       0.87283449      -3.48813717       0.00000000
Si       0.24044040       3.62687076      -1.22961376       0.00000000
Si      -2.50729327      -2.39537934      -1.71345037       0.00000000
