10
Lattice="16.28999089631971 0.0 0.0 0.0 16.28999089631971 0.0 0.0 0.0 34.40246978574605" Properties=species:S:1:pos:R:3:initial_magmoms:R:1 pbc="T T T"
Si       1.34043894       1.35707103       1.35470121       0.00000000
Si      -1.35369900       1.35169533      -1.35511404       0.00000000
Si      -1.34078103      -1.36195803       1.36285460       0.00000000
Si       1.35832536      -1.36243044      -1.35366914       0.00000000
Si       0.24939990      -2.53721637       2.71067532       0.00000000
Si      -0.09943416       2.53040715       2.84801005       0.00000000
Si       2.63966418       0.04297302       2.75157988       0.00000000
Si       0.00265527       2.70991863      -2.71280827       0.00000000
Si      -2.71094922       2.71230129       0.00584842       0.00000000
Si      -2.71176372      -0.00420282      -2.71284267       0.00000000
