10
Lattice="16.28999089631971 0.0 0.0 0.0 16.28999089631971 0.0 0.0 0.0 34.40246978574605" Properties=species:S:1:pos:R:3:initial_magmoms:R:1 pbc="T T T"
Si       0.96291819       1.33527501       1.67189216       0.00000000
Si       1.49574780      -1.21852458      -1.34916241       0.00000000
Si      -1.24537050       1.49814243      -1.33075708       0.00000000
Si      -1.16978490      -1.27772244       1.68221291       0.00000000
Si      -2.51662581      -2.44700235       0.05748656       0.00000000
Si      -1.65809394       0.66655422       3.02759105       0.00000000
Si       0.67274442      -2.38671306       2.69196036       0.00000000
Si       2.02595472      -0.40052223       3.11634947       0.00000000
Si       0.12921228      -2.58211161      -2.70799192       0.00000000
Si      -2.59791291       0.14926527      -2.70751029       0.00000000
