10
Lattice="16.28999089631971 0.0 0.0 0.0 16.28999089631971 0.0 0.0 0.0 34.40246978574605" Properties=species:S:1:pos:R:3:initial_magmoms:R:1 pbc="T T T"
Si       1.05875226      -0.14323797      -2.09899906       0.00000000
Si      -0.39648231       2.31728901       0.25175741       0.00000000
Si       1.09804374      -0.28194732       2.09373548       0.00000000
Si      -2.16505503      -1.02363102       0.14978844       0.00000000
Si      -2.21703642       1.99503208       1.74080035       0.00000000
Si       2.53394208      -2.08829655       1.78641805       0.00000000
Si      -0.21567960      -1.58099337      -3.46405542       0.00000000
Si       0.84861126       1.98537211      -3.15453623       0.00000000
Si      -0.57013371       3.32955287      -1.85542944       0.00000000
Si       3.35275893      -0.59777784      -2.00301612       0.00000000
