10
Lattice="16.28999089631971 0.0 0.0 0.0 16.28999089631971 0.0 0.0 0.0 34.40246978574605" Properties=species:S:1:pos:R:3:initial_magmoms:R:1 pbc="T T T"
Si      -1.35777150      -1.35734318      -1.35790064       0.00000000
Si       1.35798327       1.35744570      -1.35810706       0.00000000
Si       1.35873261      -1.35651343       1.35834788       0.00000000
Si      -1.35741312       1.35811359       1.36306102       0.00000000
Si      -0.01998783      -2.71019078       2.70960884       0.00000000
Si       0.00016290      -2.71429586      -2.71528525       0.00000000
Si      -2.71412577      -2.71556648      -0.00020641       0.00000000
Si       2.71542897      -0.00001466      -2.71470041       0.00000000
Si      -2.71521720       0.00026879      -2.71507884       0.00000000
Si      -2.71529865       2.71507059       0.00058484       0.00000000
