10
Lattice="16.28999089631971 0.0 0.0 0.0 16.28999089631971 0.0 0.0 0.0 34.40246978574605" Properties=species:S:1:pos:R:3:initial_magmoms:R:1 pbc="T T T"
Si      -0.06704964      -1.08963551      -2.06473418       0.00000000
Si       1.59226605      -0.77286765       1.56011847       0.00000000
Si      -1.76073886       0.60203768       1.47242653       0.00000000
Si       0.51217389       2.27168285      -0.63881982       0.00000000
Si       3.16234512       0.24852350       0.13891725       0.00000000
Si       2.15358687       2.27634179       1.03437964       0.00000000
Si       1.30683267       1.14886202       2.96157267       0.00000000
Si      -0.72502066       2.36398199       2.55902915       0.00000000
Si      -1.94965399      -0.04553869      -3.08174056       0.00000000
Si      -3.49567829       1.14208538      -0.02944853       0.00000000
