10
Lattice="16.28999089631971 0.0 0.0 0.0 16.28999089631971 0.0 0.0 0.0 34.40246978574605" Properties=species:S:1:pos:R:3:initial_magmoms:R:1 pbc="T T T"
Si      -0.11541465      -2.07228348       1.06971099       0.00000000
Si       2.28542184       0.72682722       0.24883320       0.00000000
Si       0.14408505      -0.38242404      -2.42055913       0.00000000
Si      -2.18790990       1.24286184       0.57985395       0.00000000
Si      -1.45300284       1.57993452      -2.69333646       0.00000000
Si       2.53120536      -2.33393346      -1.42873537       0.00000000
Si       3.21292557      -0.89715546       1.74283009       0.00000000
Si       1.43956359      -2.05087842       2.85695470       0.00000000
Si      -2.14389432      -3.17889576       0.65512660       0.00000000
Si       3.56511537       0.48671262      -1.69776283       0.00000000
