10
Lattice="16.28999089631971 0.0 0.0 0.0 16.28999089631971 0.0 0.0 0.0 34.40246978574605" Properties=species:S:1:pos:R:3:initial_magmoms:R:1 pbc="T T T"
Si       1.30175019       1.82057040      -0.73005522       0.00000000
Si      -0.29033667      -0.02928942       2.41502033       0.00000000
Si      -2.28604086      -0.10824705      -0.97486333       0.00000000
Si      -0.78706764       1.50384393      -2.17901925       0.00000000
Si      -0.10534743       2.94062193       0.99254621       0.00000000
Si       0.77714703      -0.11857491      -3.01197232       0.00000000
Si      -1.87870941       1.78689897       2.10667082       0.00000000
Si      -1.61657073      -1.93986207       2.56460235       0.00000000
Si      -3.12447087      -1.73594385       0.69231569       0.00000000
Si      -3.43368765       1.76549391       0.31942711       0.00000000
