10
Lattice="16.28999089631971 0.0 0.0 0.0 16.28999089631971 0.0 0.0 0.0 34.40246978574605" Properties=species:S:1:pos:R:3:initial_magmoms:R:1 pbc="T T T"
Si       0.11258019       1.55580903       1.72356470       0.00000000
Si       1.65755637       0.20038329      -1.64660633       0.00000000
Si      -2.00466369       0.67140864      -1.05471151       0.00000000
Si       0.24242778      -2.31044328       0.53399543       0.00000000
Si      -1.70927712      -0.44745372      -3.10750803       0.00000000
Si      -0.83686617       0.41997249       3.59189507       0.00000000
Si       1.50076512       2.16036351      -2.79090192       0.00000000
Si      -0.06732657      -3.58305066      -1.37455145       0.00000000
Si       2.44797975      -2.73083931       1.23460212       0.00000000
Si       0.53957367      -0.02044395      -3.85569336       0.00000000
