10
Lattice="16.28999089631971 0.0 0.0 0.0 16.28999089631971 0.0 0.0 0.0 34.40246978574605" Properties=species:S:1:pos:R:3:initial_magmoms:R:1 pbc="T T T"
Si       1.35695700       1.35767376       1.35697178       0.00000000
Si       1.35521397      -1.35909099      -1.35783184       0.00000000
Si      -1.35824391      -1.35773892       1.35693737       0.00000000
Si      -1.35734796       1.35935163      -1.36099687       0.00000000
Si      -0.02127474       2.72411154      -2.70335103       0.00000000
Si       2.71451673      -0.00040725       2.71380594       0.00000000
Si       2.71437012       2.71464705      -0.00061924       0.00000000
Si       2.71655298      -2.71249677      -0.00058484       0.00000000
Si      -2.71498914      -0.00091224       2.71428758       0.00000000
Si      -0.00006516       2.71565703       2.71363393       0.00000000
