10
Lattice="16.28999089631971 0.0 0.0 0.0 16.28999089631971 0.0 0.0 0.0 34.40246978574605" Properties=species:S:1:pos:R:3:initial_magmoms:R:1 pbc="T T T"
Si      -0.64698993      -1.18959354       1.96052904       0.00000000
Si       1.55650950      -1.55890413      -0.94290342       0.00000000
Si       0.85789656       2.25512244       0.32142245       0.00000000
Si      -2.12001318       0.39511395      -1.34296996       0.00000000
Si      -0.99597060      -3.26818125       0.92656224       0.00000000
Si      -0.88627374       1.62821808      -3.07214227       0.00000000
Si       0.28372293      -3.50829585      -1.02003380       0.00000000
Si       0.16860150       3.28909761      -1.73213092       0.00000000
Si       3.06967131      -2.15054064       0.81244918       0.00000000
Si      -2.42857836       0.06621885       2.97516165       0.00000000
