10
Lattice="16.28999089631971 0.0 0.0 0.0 16.28999089631971 0.0 0.0 0.0 34.40246978574605" Properties=species:S:1:pos:R:3:initial_magmoms:R:1 pbc="T T T"
Si       1.33024792       1.41685533       1.27977810       0.00000000
Si      -1.02741749       1.66988790      -1.27447740       0.00000000
Si      -1.51673651      -1.36936998       1.22430408       0.00000000
Si       1.97602587      -0.74859066      -1.34679143       0.00000000
Si       0.23383969      -1.27672875      -2.71979477       0.00000000
Si      -1.31421923       0.35087031      -3.22571777       0.00000000
Si       2.48284035      -0.08350254       2.61915644       0.00000000
Si       0.74284192       3.29690052      -1.49224516       0.00000000
Si      -0.22913579       2.62770732       2.62755409       0.00000000
Si      -0.23825086      -2.78296731       2.60285310       0.00000000
