10
Lattice="16.28999089631971 0.0 0.0 0.0 16.28999089631971 0.0 0.0 0.0 34.40246978574605" Properties=species:S:1:pos:R:3:initial_magmoms:R:1 pbc="T T T"
Si       1.87660800      -1.03246020      -0.99209898       0.00000000
Si       1.24636419       1.33968960       1.55171192       0.00000000
Si      -0.45043479       1.36537893      -2.01866925       0.00000000
Si      -1.54657260      -1.44961452       1.34774300       0.00000000
Si      -1.01002887      -0.53919900      -3.36827889       0.00000000
Si       3.47539005       0.80513325      -0.85228726       0.00000000
Si       2.17658835       2.96204328       0.07657994       0.00000000
Si       0.95063553      -2.02986432      -2.94829331       0.00000000
Si       2.52664416      -0.19191249       2.84832797       0.00000000
Si      -0.21776472       2.52451017       2.86185159       0.00000000
