10
Lattice="16.28999089631971 0.0 0.0 0.0 16.28999089631971 0.0 0.0 0.0 34.40246978574605" Properties=species:S:1:pos:R:3:initial_magmoms:R:1 pbc="T T T"
Si      -1.35573525       1.35683973      -1.35707498       0.00000000
Si      -1.35596331      -1.35934739       1.35593970       0.00000000
Si       1.35808101      -1.35740888      -1.35776303       0.00000000
Si       1.35736425       1.35869191       1.35862310       0.00000000
Si      -0.00786807      -2.70840374       2.71370274       0.00000000
Si      -2.71192662       0.00098516      -2.71466601       0.00000000
Si      -2.71318095       2.71430009      -0.00048163       0.00000000
Si      -2.71340901      -2.71438217      -0.00061924       0.00000000
Si      -2.71243161       0.00034097       2.71597330       0.00000000
Si       0.00198738       2.71487024      -2.71452840       0.00000000
