10
Lattice="16.28999089631971 0.0 0.0 0.0 16.28999089631971 0.0 0.0 0.0 34.40246978574605" Properties=species:S:1:pos:R:3:initial_magmoms:R:1 pbc="T T T"
Si       1.42641171       0.80525380      -1.69177680       0.00000000
Si      -0.45478422       1.22813079       1.97793670       0.00000000
Si       1.41125224      -1.63609985       0.98336075       0.00000000
Si      -1.26254016      -1.89265106      -1.13645182       0.00000000
Si      -0.94428243      -0.08026246      -2.79847047       0.00000000
Si      -0.23496696       2.51199293      -2.10457227       0.00000000
Si       0.49064733      -3.49762331      -0.02449457       0.00000000
Si      -2.37465846      -0.04694126       2.72894304       0.00000000
Si       1.39898261       0.75140394       3.39181020       0.00000000
Si       1.88348957      -1.26112034      -3.00110113       0.00000000
