10
Lattice="16.28999089631971 0.0 0.0 0.0 16.28999089631971 0.0 0.0 0.0 34.40246978574605" Properties=species:S:1:pos:R:3:initial_magmoms:R:1 pbc="T T T"
Si       1.96563515      -0.55749334      -1.09816185       0.00000000
Si      -1.02643290       1.98380272       0.64277610       0.00000000
Si      -2.10843099      -0.54638356      -0.90688401       0.00000000
Si       2.25304776      -1.53771151       1.23931526       0.00000000
Si       1.41159366      -0.00467849       2.85654187       0.00000000
Si      -3.25643616       0.87508414       0.65798200       0.00000000
Si      -0.29142810       1.86540700       2.90505664       0.00000000
Si       1.14727212      -1.99094818      -2.78725526       0.00000000
Si       2.35931884       1.20593730      -2.64665228       0.00000000
Si      -2.31625881      -2.90028856      -0.86959171       0.00000000
