10
Lattice="16.28999089631971 0.0 0.0 0.0 16.28999089631971 0.0 0.0 0.0 34.40246978574605" Properties=species:S:1:pos:R:3:initial_magmoms:R:1 pbc="T T T"
Si      -1.35658233      -1.35742941       1.35697178       0.00000000
Si      -1.35738054       1.35754344      -1.35755662       0.00000000
Si       1.35783666      -1.35780408      -1.35704058       0.00000000
Si       1.36058967       1.35773892       1.35876071       0.00000000
Si       2.71311579       0.00032580       2.71470041       0.00000000
Si       0.00084708      -2.71480995      -2.71428758       0.00000000
Si      -2.71432125      -2.71538010      -0.00024082       0.00000000
Si      -2.71495656       2.71538010       0.00051604       0.00000000
Si       2.71563636      -2.71498914       0.00017201       0.00000000
Si      -2.71565703       0.00092853      -2.71504443       0.00000000
