10
Lattice="16.28999089631971 0.0 0.0 0.0 16.28999089631971 0.0 0.0 0.0 34.40246978574605" Properties=species:S:1:pos:R:3:initial_magmoms:R:1 pbc="T T T"
Si      -1.35053874       1.35601218      -1.36137530       0.00000000
Si       1.36813194       1.34952876       1.36818699       0.00000000
Si       1.36692648      -1.36115982      -1.36082486       0.00000000
Si      -1.36647036      -1.35452979       1.38728037       0.00000000
Si      -2.70262503       2.70379791      -0.00443792       0.00000000
Si      -2.71088406      -2.71630863      -0.00288981       0.00000000
Si      -2.70861975      -0.00351864      -2.71906952       0.00000000
Si       0.00636939       2.71096551      -2.71979198       0.00000000
Si       2.73034783       2.70269019      -0.00657088       0.00000000
Si       2.71945260      -2.71857294      -0.00488515       0.00000000
