10
Lattice="16.28999089631971 0.0 0.0 0.0 16.28999089631971 0.0 0.0 0.0 34.40246978574605" Properties=species:S:1:pos:R:3:initial_magmoms:R:1 pbc="T T T"
Si       2.22009894       0.78338610      -0.26472715       0.00000000
Si      -0.91259838       2.07982575       0.71030819       0.00000000
Si       0.38442771      -1.61709201       1.78211774       0.00000000
Si      -1.53011970      -0.42639075      -1.93290385       0.00000000
Si       2.76239304      -0.66670083      -2.03783144       0.00000000
Si      -0.09619245       3.24376254      -1.41160293       0.00000000
Si       0.20538432       2.30065299       2.91939522       0.00000000
Si      -1.51949862      -1.48278096       3.19145010       0.00000000
Si      -3.16144917       1.65281598       1.45849352       0.00000000
Si       3.42118819       0.35815194       1.77210661       0.00000000
