10
Lattice="16.28999089631971 0.0 0.0 0.0 16.28999089631971 0.0 0.0 0.0 34.40246978574605" Properties=species:S:1:pos:R:3:initial_magmoms:R:1 pbc="T T T"
Si       1.36133901      -1.35340578       1.35724700       0.00000000
Si      -1.35521397       1.35909099       1.35783184       0.00000000
Si      -1.36272366      -1.33757190      -1.37752726       0.00000000
Si       1.36792017       1.36677987      -1.35904281       0.00000000
Si      -2.71472850      -2.71215468       0.00027522       0.00000000
Si       0.00188964      -2.71363707       2.71428758       0.00000000
Si      -2.71345788       0.00135207       2.71476921       0.00000000
Si      -2.71256193       2.71844262      -0.00316503       0.00000000
Si       2.71443528       2.71668330       0.00192654       0.00000000
Si       0.00174303       2.71676475       2.71480362       0.00000000
