10
Lattice="16.28999089631971 0.0 0.0 0.0 16.28999089631971 0.0 0.0 0.0 34.40246978574605" Properties=species:S:1:pos:R:3:initial_magmoms:R:1 pbc="T T T"
Si       1.35148356      -1.34959392      -1.36022969       0.00000000
Si       1.36099692       1.35051172       1.35378267       0.00000000
Si      -1.35281934      -1.35772263       1.35711971       0.00000000
Si      -1.27236303       1.34573875      -1.49174697       0.00000000
Si       0.65275659       2.21922647      -2.65872515       0.00000000
Si      -0.33580206      -2.27289483      -2.77332711       0.00000000
Si       2.35577835       0.34914098      -2.70723992       0.00000000
Si      -2.24953497      -0.33866910      -2.91871202       0.00000000
Si      -2.69909010       2.71546874      -0.03069390       0.00000000
Si      -2.70746316      -0.00351512       2.71488274       0.00000000
