10
Lattice="16.28999089631971 0.0 0.0 0.0 16.28999089631971 0.0 0.0 0.0 34.40246978574605" Properties=species:S:1:pos:R:3:initial_magmoms:R:1 pbc="T T T"
Si      -0.91414090       1.58886144       1.43675115       0.00000000
Si       2.26145518       0.63214974      -0.37966587       0.00000000
Si      -0.77474737      -2.05423416       0.93161940       0.00000000
Si      -1.20108925       0.42523416      -2.03683376       0.00000000
Si      -3.03676048      -1.97524395       0.01001112       0.00000000
Si      -0.77986243       0.63819333       3.54359398       0.00000000
Si       2.68193266      -0.04323366      -2.60268590       0.00000000
Si       0.27457854       3.61123236       1.07311684       0.00000000
Si       2.41207252       3.00944718       0.29400367       0.00000000
Si      -3.42118819      -0.35815194      -1.77210661       0.00000000
