10
Lattice="16.28999089631971 0.0 0.0 0.0 16.28999089631971 0.0 0.0 0.0 34.40246978574605" Properties=species:S:1:pos:R:3:initial_magmoms:R:1 pbc="T T T"
Si       2.11939416      -0.37683657      -0.92243394       0.00000000
Si      -1.00216080      -1.20218571       1.77069611       0.00000000
Si      -1.45751517       0.12965211      -1.92540410       0.00000000
Si       0.81116055       1.54836450       1.67467876       0.00000000
Si      -0.76154121       3.15641556       1.07979092       0.00000000
Si      -2.84081799       1.96563285       0.74271534       0.00000000
Si      -2.61996631       0.44378847       2.57929221       0.00000000
Si       3.61735740      -0.49692645       0.86635788       0.00000000
Si       0.82590300      -2.33455248       2.84484502       0.00000000
Si       2.17878750      -2.59729389      -1.68971265       0.00000000
