10
Lattice="16.28999089631971 0.0 0.0 0.0 16.28999089631971 0.0 0.0 0.0 34.40246978574605" Properties=species:S:1:pos:R:3:initial_magmoms:R:1 pbc="T T T"
Si      -1.35497614      -1.34079732       1.37159283       0.00000000
Si      -1.35474482       1.35695700      -1.35958637       0.00000000
Si       1.36130643      -1.35863487      -1.35762542       0.00000000
Si       1.34591238       1.37098269       1.36357705       0.00000000
Si       2.68687260      -0.00677664       2.68607754       0.00000000
Si      -2.70255355       2.70565497      -0.00165132       0.00000000
Si      -2.71061445      -0.00065160      -2.71525085       0.00000000
Si       0.00324171       2.71308321      -2.71497563       0.00000000
Si      -2.71344878      -2.71560816       0.00003440       0.00000000
Si       0.00340461      -2.71585251      -2.71470041       0.00000000
