10
Lattice="16.28999089631971 0.0 0.0 0.0 16.28999089631971 0.0 0.0 0.0 34.40246978574605" Properties=species:S:1:pos:R:3:initial_magmoms:R:1 pbc="T T T"
Si       2.34308844      -0.29719476       0.34674269       0.00000000
Si      -1.33981992      -1.10980512      -1.65176670       0.00000000
Si       0.28066041       2.20977108      -1.06317452       0.00000000
Si      -1.32641325      -0.86382612       2.02400164       0.00000000
Si      -2.77392473       0.89450019      -1.31417508       0.00000000
Si      -1.85331982       2.75602365      -0.30631976       0.00000000
Si      -0.62773515      -3.30318846      -0.72217705       0.00000000
Si       2.37128643       0.64000152       2.50401957       0.00000000
Si      -1.18304496       2.84400594       1.94418786       0.00000000
Si       1.17693621       2.75781555       2.26691761       0.00000000
