10
Lattice="16.28999089631971 0.0 0.0 0.0 16.28999089631971 0.0 0.0 0.0 34.40246978574605" Properties=species:S:1:pos:R:3:initial_magmoms:R:1 pbc="T T T"
Si       1.50449553      -1.59167961       1.04624850       0.00000000
Si      -0.62594651       1.97118774       1.31661766       0.00000000
Si      -2.05759709      -1.38864105      -0.29985209       0.00000000
Si       1.32641325       0.86382612      -2.02400164       0.00000000
Si       2.20949415      -2.73082302      -0.89205654       0.00000000
Si      -0.01340667      -0.24597900      -3.67576834       0.00000000
Si       0.14336829       3.70783206      -0.07981377       0.00000000
Si       0.69867810      -2.43936234      -2.74617869       0.00000000
Si      -2.92590296      -1.47352824       1.88818061       0.00000000
Si       3.24270369      -0.27883593       2.00336014       0.00000000
