10
Lattice="16.28999089631971 0.0 0.0 0.0 16.28999089631971 0.0 0.0 0.0 34.40246978574605" Properties=species:S:1:pos:R:3:initial_magmoms:R:1 pbc="T T T"
Si       0.70499862      -1.13914341      -1.93830504       0.00000000
Si       1.73820816       1.31284368       0.95711165       0.00000000
Si      -0.77185278      -1.79476704       1.39901162       0.00000000
Si      -1.50449553       1.59167961      -1.04624850       0.00000000
Si       3.59490978      -0.36149139       1.11594794       0.00000000
Si      -3.56209262       0.20303856      -1.34610059       0.00000000
Si       2.69298135      -0.12628008      -2.70176507       0.00000000
Si      -2.90934676      -1.19298186       2.17812479       0.00000000
Si       2.19320415       3.09550725      -0.56623057       0.00000000
Si       0.77558319       2.61216666       2.71521645       0.00000000
