10
Lattice="16.28999089631971 0.0 0.0 0.0 16.28999089631971 0.0 0.0 0.0 34.40246978574605" Properties=species:S:1:pos:R:3:initial_magmoms:R:1 pbc="T T T"
Si       2.13749398      -0.60178518      -0.77911317       0.00000000
Si      -1.18871944      -2.02237092       0.36363431       0.00000000
Si       0.75419116       1.23419556       1.88900627       0.00000000
Si      -1.52105173       1.31113323      -1.33619267       0.00000000
Si      -0.84656428       2.97258291       1.83372147       0.00000000
Si      -0.27457854      -3.61123236      -1.07311684       0.00000000
Si      -3.64717366       0.29124891      -1.07012382       0.00000000
Si       2.90934676       1.19298186      -2.17812479       0.00000000
Si       3.59500915      -0.73143729       1.14629093       0.00000000
Si      -0.65274586       1.39602042      -3.52422538       0.00000000
