10
Lattice="16.28999089631971 0.0 0.0 0.0 16.28999089631971 0.0 0.0 0.0 34.40246978574605" Properties=species:S:1:pos:R:3:initial_magmoms:R:1 pbc="T T T"
Si      -1.36739933      -1.33478631       1.37409390       0.00000000
Si       1.34918690       1.38207618       1.36680057       0.00000000
Si      -1.37668463       1.39256694      -1.34552607       0.00000000
Si       1.39485917      -1.39341402      -1.41535624       0.00000000
Si       2.31124823       0.32498550      -2.75576807       0.00000000
Si      -2.71391444      -2.68468974       0.01312455       0.00000000
Si      -0.00627209      -2.69061930       2.72955196       0.00000000
Si       2.72317346      -2.69801496       0.00848021       0.00000000
Si       2.70854504       0.02155167       2.72907033       0.00000000
Si      -2.72267846       0.02226843       2.72937995       0.00000000
