10
Lattice="16.28999089631971 0.0 0.0 0.0 16.28999089631971 0.0 0.0 0.0 34.40246978574605" Properties=species:S:1:pos:R:3:initial_magmoms:R:1 pbc="T T T"
Si      -0.92060491      -1.86152346      -1.00785532       0.00000000
Si       2.13398023      -0.54625257      -0.75685476       0.00000000
Si       0.67027486       0.08798229       2.25050762       0.00000000
Si      -1.41125224       1.63609985      -0.98336075       0.00000000
Si       1.85331982      -2.75602365       0.30631976       0.00000000
Si      -0.01226963       2.38750380       2.40844945       0.00000000
Si      -2.67379240      -0.25655121      -2.11981257       0.00000000
Si      -1.86603646       2.86423065       0.99457596       0.00000000
Si      -3.03497428      -1.88762004      -0.00832540       0.00000000
Si       0.01515947       2.44135365      -2.67513755       0.00000000
