10
Lattice="10.86 0.0 0.0 0.0 10.86 0.0 0.0 0.0 10.86" Properties=species:S:1:pos:R:3:initial_magmoms:R:1 pbc="T T T"
Si      -1.13459850       1.12745262       1.41170226       0.00000000
Si      -1.33265232      -1.47909942      -1.17710454       0.00000000
Si       1.68331086       1.29456630      -1.35772806       0.00000000
Si      -2.41821792       2.57946720       0.02871384       0.00000000
Si      -2.41821792      -0.13553280      -2.68628616       0.00000000
Si      -2.41821792      -0.13553280       2.74371384       0.00000000
Si       0.29678208       2.57946720      -2.68628616       0.00000000
Si      -2.41821792      -2.85053280       0.02871384       0.00000000
Si       0.29678208       2.57946720       2.74371384       0.00000000
Si       0.29678208      -2.85053280      -2.68628616       0.00000000
