10
Lattice="10.86 0.0 0.0 0.0 10.86 0.0 0.0 0.0 10.86" Properties=species:S:1:pos:R:3:initial_magmoms:R:1 pbc="T T T"
Si       1.35750000       1.35750000       1.35750000       0.00000000
Si       1.35750000      -1.35750000      -1.35750000       0.00000000
Si      -1.35750000       1.35750000      -1.35750000       0.00000000
Si      -1.35750000      -1.35750000       1.35750000       0.00000000
Si       2.62000758       0.07085064       2.71506516       0.00000000
Si       0.27757074      -2.69325828       2.66654268       0.00000000
Si       2.74843794      -0.04869624      -2.63995740       0.00000000
Si      -2.56754292      -0.08238396      -2.81568306       0.00000000
Si       0.01482390       2.76629178      -2.65347810       0.00000000
Si       2.71500000       2.71500000       0.00000000       0.00000000
