10
Lattice="10.86 0.0 0.0 0.0 10.86 0.0 0.0 0.0 10.86" Properties=species:S:1:pos:R:3:initial_magmoms:R:1 pbc="T T T"
Si       1.27688622       1.26760092      -1.25731650       0.00000000
Si      -1.78415682       1.10427738       1.17456330       0.00000000
Si      -1.71984390      -1.24696692      -1.38774510       0.00000000
Si       2.46333036      -0.00327972      -2.61380652       0.00000000
Si       2.46333036       2.71172028       0.10119348       0.00000000
Si      -0.25166964       2.71172028      -2.61380652       0.00000000
Si      -0.25166964      -2.71827972      -2.61380652       0.00000000
Si      -0.25166964       2.71172028       2.81619348       0.00000000
Si       0.00840564      -2.71245876       2.82976848       0.00000000
Si      -2.96666964      -0.00327972      -2.61380652       0.00000000
