10
Lattice="10.86 0.0 0.0 0.0 10.86 0.0 0.0 0.0 10.86" Properties=species:S:1:pos:R:3:initial_magmoms:R:1 pbc="T T T"
Si      -1.27688622      -1.26760092       1.25731650       0.00000000
Si       1.18644414      -1.27088064      -1.35649002       0.00000000
Si       1.18644414       1.44411936       1.35850998       0.00000000
Si      -1.52855586       1.44411936      -1.35649002       0.00000000
Si       2.27299800       0.06434550       2.86607346       0.00000000
Si       2.54394414       0.08661936      -2.71399002       0.00000000
Si       2.71640094      -2.57563362      -0.01783212       0.00000000
Si      -0.17105586      -2.62838064      -2.71399002       0.00000000
Si       2.54394414       2.80161936       0.00100998       0.00000000
Si      -0.17105586       2.80161936      -2.71399002       0.00000000
