10
Lattice="10.86 0.0 0.0 0.0 10.86 0.0 0.0 0.0 10.86" Properties=species:S:1:pos:R:3:initial_magmoms:R:1 pbc="T T T"
Si      -1.08655386       1.37977386      -1.50756348       0.00000000
Si       1.62844614       1.37977386       1.20743652       0.00000000
Si       1.62844614      -1.33522614      -1.50756348       0.00000000
Si      -2.28698568       0.03944352       2.61516402       0.00000000
Si      -2.27299800      -0.06434550      -2.86607346       0.00000000
Si      -2.44405386       2.73727386      -0.15006348       0.00000000
Si       0.27094614       2.73727386       2.56493652       0.00000000
Si       0.49315260      -2.71740006       2.71137276       0.00000000
Si       0.44340294      -2.63997912      -2.88390558       0.00000000
Si       2.98594614       0.02227386       2.56493652       0.00000000
