10
Lattice="10.86 0.0 0.0 0.0 10.86 0.0 0.0 0.0 10.86" Properties=species:S:1:pos:R:3:initial_magmoms:R:1 pbc="T T T"
Si       1.35750000       1.35750000       1.35750000       0.00000000
Si      -1.35750000      -1.35750000       1.35750000       0.00000000
Si       1.35750000      -1.35750000      -1.35750000       0.00000000
Si      -1.35750000       1.35750000      -1.35750000       0.00000000
Si      -2.22831996      -0.20395080      -2.49462888       0.00000000
Si      -2.46475302       0.08104818       2.40129804       0.00000000
Si       2.52190920       0.14616474      -2.62377600       0.00000000
Si       2.86511778       0.14997660       2.52468936       0.00000000
Si       0.00000000       2.71500000      -2.71500000       0.00000000
Si      -2.71500000       2.71500000       0.00000000       0.00000000
