10
Lattice="10.86 0.0 0.0 0.0 10.86 0.0 0.0 0.0 10.86" Properties=species:S:1:pos:R:3:initial_magmoms:R:1 pbc="T T T"
Si       1.13193780      -1.25808756      -1.13012418       0.00000000
Si       1.43439966       1.35740226       1.12912506       0.00000000
Si      -1.58306220       1.45691244      -1.13012418       0.00000000
Si      -1.58306220      -1.25808756       1.58487582       0.00000000
Si       2.48943780       0.09941244      -2.48762418       0.00000000
Si       2.28719202       0.00489786       2.74626594       0.00000000
Si      -0.22556220      -2.61558756      -2.48762418       0.00000000
Si       2.48943780      -2.61558756       0.22737582       0.00000000
Si      -0.22556220       2.81441244      -2.48762418       0.00000000
Si      -2.94056220       0.09941244      -2.48762418       0.00000000
