10
Lattice="10.86 0.0 0.0 0.0 10.86 0.0 0.0 0.0 10.86" Properties=species:S:1:pos:R:3:initial_magmoms:R:1 pbc="T T T"
Si      -1.20643740      -1.30537200       1.50576072       0.00000000
Si       1.50856260      -1.30537200      -1.20923928       0.00000000
Si      -1.87641252      -0.23737788      -1.67876052       0.00000000
Si       1.50856260       1.40962800       1.50576072       0.00000000
Si      -2.56393740      -2.66287200       0.14826072       0.00000000
Si       0.15106260      -2.66287200      -2.56673928       0.00000000
Si       2.75289054       0.08588088      -2.65977690       0.00000000
Si      -2.56393740       0.05212800       2.86326072       0.00000000
Si      -2.62149540       2.82939924       0.38323854       0.00000000
Si       0.15106260      -2.66287200       2.86326072       0.00000000
