10
Lattice="10.86 0.0 0.0 0.0 10.86 0.0 0.0 0.0 10.86" Properties=species:S:1:pos:R:3:initial_magmoms:R:1 pbc="T T T"
Si       1.11422514       1.62744702      -1.41682818       0.00000000
Si      -1.61686938      -1.26799188      -1.53124914       0.00000000
Si      -1.60004724       1.41079002       1.46538324       0.00000000
Si       2.48160774       2.67077808      -0.01037130       0.00000000
Si       2.48160774      -0.04422192      -2.72537130       0.00000000
Si       2.35819470      -2.92342512       0.16410546       0.00000000
Si      -0.23339226       2.67077808       2.70462870       0.00000000
Si      -0.23339226       2.67077808      -2.72537130       0.00000000
Si      -0.23339226      -2.75922192      -2.72537130       0.00000000
Si      -2.94839226       2.67077808      -0.01037130       0.00000000
