10
Lattice="10.86 0.0 0.0 0.0 10.86 0.0 0.0 0.0 10.86" Properties=species:S:1:pos:R:3:initial_magmoms:R:1 pbc="T T T"
Si       1.39528194       1.23308784       1.21927392       0.00000000
Si      -1.31971806      -1.48191216       1.21927392       0.00000000
Si      -1.31971806       1.23308784      -1.49572608       0.00000000
Si       0.03778194       2.59058784       2.57677392       0.00000000
Si      -2.67721806      -0.12441216       2.57677392       0.00000000
Si      -2.67721806       2.59058784      -0.13822608       0.00000000
Si       2.75278194      -0.12441216       2.57677392       0.00000000
Si       2.75278194       2.59058784      -0.13822608       0.00000000
Si      -2.68637304      -0.02690022      -2.73497154       0.00000000
Si       0.03778194      -2.83941216       2.57677392       0.00000000
