10
Lattice="16.28999089631971 0.0 0.0 0.0 16.28999089631971 0.0 0.0 0.0 34.2284985734139" Properties=species:S:1:pos:R:3:initial_magmoms:R:1 pbc="T T T"
Si       1.35488817      -1.35877904       1.36277420       0.00000000
Si      -1.36045935       1.35806961       1.36280843       0.00000000
Si       1.34708526       1.35828138      -1.38615570       0.00000000
Si      -1.36265850      -1.36304715      -1.39206355       0.00000000
Si       2.71181259       2.71502661       0.00225908       0.00000000
Si      -2.71495493       2.71196409       0.00585308       0.00000000
Si       2.71379997      -2.71588739       0.00318325       0.00000000
Si      -2.71931088      -2.71266197       0.00222485       0.00000000
Si       2.71280628      -0.00013684       2.72014030       0.00000000
Si      -0.00213399       2.71484742       2.71996916       0.00000000
