10
Lattice="16.28999089631971 0.0 0.0 0.0 16.28999089631971 0.0 0.0 0.0 34.2284985734139" Properties=species:S:1:pos:R:3:initial_magmoms:R:1 pbc="T T T"
Si      -1.35713619       1.35735936       1.35726341       0.00000000
Si       1.35799956      -1.35790848       1.35705804       0.00000000
Si      -1.35791811      -1.35864221      -1.35736610       0.00000000
Si       1.35927018       1.35762000      -1.35746878       0.00000000
Si       0.00003258       2.71175883       2.71421877       0.00000000
Si       2.71261080       0.00036978       2.71445837       0.00000000
Si      -2.71494027       2.71498425      -0.00017114       0.00000000
Si      -2.71489140      -2.71511524       0.00030806       0.00000000
Si       2.71529865      -2.71500121       0.00041074       0.00000000
Si       2.71534752       2.71503312      -0.00006846       0.00000000
