10
Lattice="16.28999089631971 0.0 0.0 0.0 16.28999089631971 0.0 0.0 0.0 34.2284985734139" Properties=species:S:1:pos:R:3:initial_magmoms:R:1 pbc="T T T"
Si       1.35044100       1.33631757       1.37276893       0.00000000
Si       1.35228177      -1.35741312      -1.35596273       0.00000000
Si      -1.34122086      -1.36235225       1.36414334       0.00000000
Si      -1.36029645       1.35397593      -1.35620233       0.00000000
Si      -0.07022619       2.65458582       2.72287858       0.00000000
Si       2.71239903      -0.00040725      -2.71305500       0.00000000
Si      -0.00267156       2.71419093      -2.71336306       0.00000000
Si      -0.00232947      -2.71569139      -2.71336306       0.00000000
Si       2.71536381       2.71518462       0.00431279       0.00000000
Si      -2.71746522      -0.00042354      -2.71315768       0.00000000
