10
Lattice="16.28999089631971 0.0 0.0 0.0 16.28999089631971 0.0 0.0 0.0 34.2284985734139" Properties=species:S:1:pos:R:3:initial_magmoms:R:1 pbc="T T T"
Si       1.25573094       0.44785120       1.87486706       0.00000000
Si       1.31828454      -0.21420861      -1.91529094       0.00000000
Si      -1.94602132       1.24075229       0.44555261       0.00000000
Si      -0.16889472      -2.34015528       0.28840949       0.00000000
Si      -0.55819314      -0.96099501      -3.06266508       0.00000000
Si      -2.05286091      -2.04159216      -1.64156548       0.00000000
Si      -1.01872773      -2.19136242       2.57134894       0.00000000
Si       3.12919497      -0.84221043       1.41404852       0.00000000
Si      -0.36764901      -0.15900343       3.58711443       0.00000000
Si      -1.83735562       1.53890816       2.88707278       0.00000000
