10
Lattice="16.28999089631971 0.0 0.0 0.0 16.28999089631971 0.0 0.0 0.0 34.2284985734139" Properties=species:S:1:pos:R:3:initial_magmoms:R:1 pbc="T T T"
Si       1.94602132      -1.24075229      -0.44555261       0.00000000
Si       0.10866570       0.29815587       2.44152017       0.00000000
Si      -1.94271838      -1.46589963       0.40694285       0.00000000
Si      -0.17962820       1.92617847      -1.63044121       0.00000000
Si      -1.89357145      -1.52788471      -1.96933777       0.00000000
Si      -1.32244405       0.54361359      -3.28138531       0.00000000
Si       3.20175226      -0.79290109       1.42931444       0.00000000
Si      -1.28706708       3.51756486       0.01475249       0.00000000
Si       1.57837231      -1.39975572       3.14156181       0.00000000
Si       1.41643342       2.25800577       2.71240466       0.00000000
