10
Lattice="16.28999089631971 0.0 0.0 0.0 16.28999089631971 0.0 0.0 0.0 34.2284985734139" Properties=species:S:1:pos:R:3:initial_magmoms:R:1 pbc="T T T"
Si      -1.35549090      -1.35659862      -1.35733187       0.00000000
Si       1.35930276      -1.35413883       1.36017284       0.00000000
Si      -1.35461124       1.36332639       1.35695536       0.00000000
Si       1.35971001       1.35881406      -1.35770838       0.00000000
Si      -2.71262220       2.71490769      -0.00003423       0.00000000
Si      -2.71243813       0.00092853      -2.71575905       0.00000000
Si       0.00216657      -2.71386513      -2.71551945       0.00000000
Si      -2.71388956      -2.71595025      -0.00047920       0.00000000
Si       0.00288333       2.71622718      -2.71534831       0.00000000
Si       2.71728603       2.71476108      -0.00037651       0.00000000
