10
Lattice="16.28999089631971 0.0 0.0 0.0 16.28999089631971 0.0 0.0 0.0 34.2284985734139" Properties=species:S:1:pos:R:3:initial_magmoms:R:1 pbc="T T T"
Si       1.35423657       1.34809524      -1.36407489       0.00000000
Si       1.28712177      -1.42690626       1.35630501       0.00000000
Si      -1.36078515      -1.36456443      -1.36147352       0.00000000
Si      -1.48429593       1.21661865       1.38403011       0.00000000
Si      -2.09095182      -0.64285227       2.89001644       0.00000000
Si      -0.38936358      -2.47190976       2.68016139       0.00000000
Si       2.69288361       2.71321353       0.00287520       0.00000000
Si      -0.00280188       2.70433548      -2.72202287       0.00000000
Si       2.71166598      -0.00970884      -2.72284435       0.00000000
Si      -2.74307310       2.69203653       0.00999473       0.00000000
