10
Lattice="16.28999089631971 0.0 0.0 0.0 16.28999089631971 0.0 0.0 0.0 34.2284985734139" Properties=species:S:1:pos:R:3:initial_magmoms:R:1 pbc="T T T"
Si       1.46970661      -1.69791159       0.70004164       0.00000000
Si       1.30776772       1.95984990       0.27088449       0.00000000
Si      -2.05034152       0.49622598       1.15398025       0.00000000
Si      -0.10866570      -0.29815587      -2.44152017       0.00000000
Si      -0.58889165       3.30072867      -0.02221431       0.00000000
Si      -2.05138408      -1.76405550      -2.03457732       0.00000000
Si       3.09308656      -1.09105696      -1.01220573       0.00000000
Si       1.46446123      -1.42103534       3.11958710       0.00000000
Si       1.83735562      -1.53890816      -2.88707278       0.00000000
Si      -2.43377554      -1.38069805       2.56234684       0.00000000
