10
Lattice="16.28999089631971 0.0 0.0 0.0 16.28999089631971 0.0 0.0 0.0 34.2284985734139" Properties=species:S:1:pos:R:3:initial_magmoms:R:1 pbc="T T T"
Si       1.64610450       1.68666008       0.16679557       0.00000000
Si       0.53486586      -1.72020512       1.53069931       0.00000000
Si      -2.18257818       0.28485997       1.01576549       0.00000000
Si       0.00524538      -0.27687624      -2.41954546       0.00000000
Si      -0.57220254      -3.48599225       0.29607668       0.00000000
Si      -1.46446123       1.42103534      -3.11958710       0.00000000
Si       3.57065397       0.68008469      -0.83288252       0.00000000
Si      -2.20974827       2.45176880       2.05887957       0.00000000
Si      -3.89823677       0.04033730      -0.55724027       0.00000000
Si      -0.53822160      -1.34260292       3.67076892       0.00000000
