10
Lattice="16.28999089631971 0.0 0.0 0.0 16.28999089631971 0.0 0.0 0.0 34.2284985734139" Properties=species:S:1:pos:R:3:initial_magmoms:R:1 pbc="T T T"
Si       1.71981675      -0.84018933       1.41404852       0.00000000
Si      -1.90335618      -1.58693922       0.54337772       0.00000000
Si      -0.80912430       1.84705794       1.57057553       0.00000000
Si       1.08737379       0.40312863      -2.34797363       0.00000000
Si      -1.46621403      -0.07035651      -2.49649117       0.00000000
Si      -3.11847615       1.22150565      -1.18030198       0.00000000
Si       0.43710957      -1.87905150       3.14084442       0.00000000
Si      -2.25396585       2.97497754       0.14468394       0.00000000
Si       1.62160434      -1.85911254      -2.82943196       0.00000000
Si      -0.97090029      -3.23607366       1.88891859       0.00000000
