10
Lattice="16.28999089631971 0.0 0.0 0.0 16.28999089631971 0.0 0.0 0.0 34.2284985734139" Properties=species:S:1:pos:R:3:initial_magmoms:R:1 pbc="T T T"
Si       1.34915409       1.34607528       1.37410384       0.00000000
Si      -1.35734796       1.35423657      -1.35829027       0.00000000
Si       1.35627282      -1.36067112      -1.35935135       0.00000000
Si      -1.36063854      -1.35363384       1.36523866       0.00000000
Si       2.57308695      -0.19761399       2.77976638       0.00000000
Si      -0.11246616       2.58302385       2.79075373       0.00000000
Si      -2.71326240       2.71340901       0.00188257       0.00000000
Si      -2.71311579      -2.71552671       0.00359399       0.00000000
Si       0.00053757       2.71339813      -2.71661476       0.00000000
Si       2.71824714       2.71217398       0.00486045       0.00000000
