10
Lattice="16.28999089631971 0.0 0.0 0.0 16.28999089631971 0.0 0.0 0.0 34.2284985734139" Properties=species:S:1:pos:R:3:initial_magmoms:R:1 pbc="T T T"
Si       1.35591444      -1.35917244      -1.36017284       0.00000000
Si      -1.36089918       1.35727044      -1.36150775       0.00000000
Si       1.37490858       1.35332826       1.35900907       0.00000000
Si      -1.36606311      -1.38554595       1.35534662       0.00000000
Si      -0.04391784       2.63050010       2.70579855       0.00000000
Si       2.60079624      -0.13038516       2.78887117       0.00000000
Si       2.71326240      -2.71340901      -0.00188257       0.00000000
Si      -2.71507059      -2.71394658      -0.00373091       0.00000000
Si       2.71612944       2.71568051      -0.00513428       0.00000000
Si       2.71379997      -0.00001088      -2.71849733       0.00000000
