10
Lattice="16.28999089631971 0.0 0.0 0.0 16.28999089631971 0.0 0.0 0.0 34.2284985734139" Properties=species:S:1:pos:R:3:initial_magmoms:R:1 pbc="T T T"
Si      -0.91504188      -1.71435960      -1.24513079       0.00000000
Si       1.84090032       1.05322995      -1.22897493       0.00000000
Si      -1.63642824       1.84258212      -0.16744591       0.00000000
Si      -0.52062840      -0.83523717       2.32045390       0.00000000
Si       0.17448219       1.21458030       3.16189355       0.00000000
Si      -2.12595903      -0.20193084      -2.66249948       0.00000000
Si       0.61501266       2.53694337      -2.65883703       0.00000000
Si      -3.12360750      -0.28336455       2.03625452       0.00000000
Si      -1.71919773      -3.47820822       0.24699298       0.00000000
Si      -3.51290592       1.09579572      -1.31482005       0.00000000
