10
Lattice="16.28999089631971 0.0 0.0 0.0 16.28999089631971 0.0 0.0 0.0 34.2284985734139" Properties=species:S:1:pos:R:3:initial_magmoms:R:1 pbc="T T T"
Si       1.58309478       0.87935279       1.44495687       0.00000000
Si       1.46162025      -1.23694857      -1.41664989       0.00000000
Si      -1.22588766       1.48371342      -1.42986210       0.00000000
Si      -1.84090032      -1.05322995       1.22897493       0.00000000
Si      -3.47732856       0.78935217       1.06152902       0.00000000
Si       0.41339133       1.49241065       3.43613244       0.00000000
Si       0.11246616      -2.58302385      -2.79075373       0.00000000
Si       2.69895978       2.68067330       0.06274087       0.00000000
Si      -2.60079624       0.13038516      -2.78887117       0.00000000
Si      -2.64471408       2.76088526      -0.08307261       0.00000000
