10
Lattice="16.28999089631971 0.0 0.0 0.0 16.28999089631971 0.0 0.0 0.0 34.2284985734139" Properties=species:S:1:pos:R:3:initial_magmoms:R:1 pbc="T T T"
Si       0.69511059       2.04981747       0.84143965       0.00000000
Si       0.52062840       0.83523717      -2.32045390       0.00000000
Si       0.79252479      -1.37246508       2.04470896       0.00000000
Si      -2.60297910       0.55187262      -0.28419938       0.00000000
Si      -1.19856933      -2.64297105      -2.07346092       0.00000000
Si      -0.39441348      -0.87912243      -3.56558469       0.00000000
Si       0.76090590       1.82293245       3.17647490       0.00000000
Si      -1.17835344       3.33987910       1.30225818       0.00000000
Si      -0.25573671      -0.23765481       3.78810428       0.00000000
Si      -1.11579984       2.67781929      -2.48789981       0.00000000
