10
Lattice="16.28999089631971 0.0 0.0 0.0 16.28999089631971 0.0 0.0 0.0 34.2284985734139" Properties=species:S:1:pos:R:3:initial_magmoms:R:1 pbc="T T T"
Si       1.56618576       1.18837179      -1.25531333       0.00000000
Si       1.41649695      -1.23090498       1.43928521       0.00000000
Si      -1.26974034       1.47670479       1.44996108       0.00000000
Si      -1.36932111      -1.34118828      -1.57887736       0.00000000
Si       0.15648174       2.30985684      -2.76513510       0.00000000
Si      -2.58856245      -2.63913313       0.00438810       0.00000000
Si       2.72811888      -2.62791094       0.01069299       0.00000000
Si       0.07146423      -2.58286095       2.80995251       0.00000000
Si      -2.43915057       2.98276416       0.13881375       0.00000000
Si      -2.64808611       0.13641246       2.80611892       0.00000000
