10
Lattice="16.28999089631971 0.0 0.0 0.0 16.28999089631971 0.0 0.0 0.0 34.2284985734139" Properties=species:S:1:pos:R:3:initial_magmoms:R:1 pbc="T T T"
Si      -1.14350913      -1.90800372      -0.50743777       0.00000000
Si       1.65283227       0.15851799       1.64183931       0.00000000
Si      -1.77961734       1.21292082       0.90387247       0.00000000
Si       0.93538809       0.76729158      -2.01195227       0.00000000
Si       2.29671081       2.26562949       0.89202940       0.00000000
Si      -1.73693754       3.08040642      -0.50302230       0.00000000
Si      -1.14605037       1.46541582       3.15871030       0.00000000
Si      -2.02346235      -2.69994044       1.47935654       0.00000000
Si       3.13566210      -0.05142753      -1.94647312       0.00000000
Si       0.36248508       3.05672076      -2.04806336       0.00000000
