10
Lattice="16.28999089631971 0.0 0.0 0.0 16.28999089631971 0.0 0.0 0.0 34.2284985734139" Properties=species:S:1:pos:R:3:initial_magmoms:R:1 pbc="T T T"
Si      -1.35698958      -1.35759231      -1.35709227       0.00000000
Si       1.35850455       1.35788553      -1.35698958       0.00000000
Si      -1.35742941       1.35780408       1.35876947       0.00000000
Si       1.36104579      -1.35659862       1.36058358       0.00000000
Si       2.70894555       0.00402363       2.67964797       0.00000000
Si       2.71221984       2.71236645      -0.00020537       0.00000000
Si      -2.71446786       2.71404432       0.00082148       0.00000000
Si       0.00070047      -2.71453302      -2.71421877       0.00000000
Si      -2.71454931       0.00043983      -2.71428723       0.00000000
Si       0.00094482       2.71485882      -2.71428723       0.00000000
