10
Lattice="16.28999089631971 0.0 0.0 0.0 16.28999089631971 0.0 0.0 0.0 34.2284985734139" Properties=species:S:1:pos:R:3:initial_magmoms:R:1 pbc="T T T"
Si       1.64555064       1.04065407      -1.28692381       0.00000000
Si       1.40970402      -1.12148505       1.50982177       0.00000000
Si      -1.31292513       1.71176949       1.17715295       0.00000000
Si      -1.63519020      -1.22668587      -1.68226319       0.00000000
Si      -1.41113754       0.69284628      -3.06632753       0.00000000
Si      -0.15648174      -2.30985684       2.76513510       0.00000000
Si      -2.98203111      -2.10623184       0.03775406       0.00000000
Si       3.52015497      -0.54416745      -0.97992823       0.00000000
Si       0.85371003       1.01540457      -3.49979748       0.00000000
Si       2.57851152       0.51969987       2.84509634       0.00000000
