10
Lattice="16.28999089631971 0.0 0.0 0.0 16.28999089631971 0.0 0.0 0.0 34.2284985734139" Properties=species:S:1:pos:R:3:initial_magmoms:R:1 pbc="T T T"
Si      -1.34877942      -1.32893820       1.37063992       0.00000000
Si      -1.41687162       1.27430154      -1.38145613       0.00000000
Si       1.36249560       1.38935781       1.36988689       0.00000000
Si       1.35894438      -1.38072411      -1.46220462       0.00000000
Si       1.99744722       0.53326944      -2.74761352       0.00000000
Si       0.30125097       2.28859839      -2.72334550       0.00000000
Si      -2.67291207      -2.71039536       0.00291969       0.00000000
Si       2.73153978      -2.67271659       0.00240284       0.00000000
Si       0.00228060      -2.68503183       2.72670533       0.00000000
Si      -2.69446374       2.74069685       0.00639389       0.00000000
