10
Lattice="16.28999089631971 0.0 0.0 0.0 16.28999089631971 0.0 0.0 0.0 34.2284985734139" Properties=species:S:1:pos:R:3:initial_magmoms:R:1 pbc="T T T"
Si      -1.34315937      -1.34066700      -1.36520443       0.00000000
Si      -1.48727700       1.17659412       1.41747138       0.00000000
Si       1.37090124       1.37393118      -1.35993324       0.00000000
Si       1.29885057      -1.40537088       1.40699745       0.00000000
Si       0.37090701       2.08481049       2.63090656       0.00000000
Si       2.16241605       0.41640498       2.62556691       0.00000000
Si      -2.72196126      -2.69198766       0.00390205       0.00000000
Si       2.73012255      -2.69259039       0.01119273       0.00000000
Si       0.00904095      -2.70254358      -2.72202287       0.00000000
Si      -2.70409113       0.01353699      -2.72164636       0.00000000
