10
Lattice="16.28999089631971 0.0 0.0 0.0 16.28999089631971 0.0 0.0 0.0 34.2284985734139" Properties=species:S:1:pos:R:3:initial_magmoms:R:1 pbc="T T T"
Si      -1.35723393      -1.35682668       1.35740033       0.00000000
Si       1.35627282      -1.35696840      -1.36010438       0.00000000
Si       1.35772263       1.35871632       1.35716073       0.00000000
Si      -1.35511623       1.35746199      -1.36191849       0.00000000
Si       2.71472506      -2.71358410       0.00041074       0.00000000
Si       0.00034209      -2.71395717       2.71510871       0.00000000
Si      -2.71484253       0.00118917       2.71486911       0.00000000
Si       2.71575749       0.00084708       2.71469797       0.00000000
Si      -2.71625976      -2.71426755       0.00102686       0.00000000
Si      -0.00006516       2.71640637       2.71497180       0.00000000
