10
Lattice="16.28999089631971 0.0 0.0 0.0 16.28999089631971 0.0 0.0 0.0 34.2284985734139" Properties=species:S:1:pos:R:3:initial_magmoms:R:1 pbc="T T T"
Si       0.04914693      -0.06198508      -2.37628061       0.00000000
Si      -2.17680012       0.79676671       0.53988641       0.00000000
Si       1.94271838       1.46589963      -0.40694285       0.00000000
Si       0.56365029      -2.01868516       1.31659993       0.00000000
Si       2.05138408       1.76405550       2.03457732       0.00000000
Si       1.83587878      -1.81644481      -2.49406094       0.00000000
Si       2.87001197      -1.96621507       1.71885347       0.00000000
Si      -3.55540653      -0.95867857       1.26097859       0.00000000
Si       0.00104256       2.26028148       3.18855757       0.00000000
Si      -0.40635405      -1.75623697       3.46793073       0.00000000
