10
Lattice="16.28999089631971 0.0 0.0 0.0 16.28999089631971 0.0 0.0 0.0 34.2284985734139" Properties=species:S:1:pos:R:3:initial_magmoms:R:1 pbc="T T T"
Si       2.14202097      -0.13523958       0.93628687       0.00000000
Si      -0.03582171      -1.59875436      -1.71238428       0.00000000
Si      -0.91246806       1.93315059      -1.00539425       0.00000000
Si      -1.02627000      -0.08790084       2.14345824       0.00000000
Si       1.75858695      -2.01216361       2.34465346       0.00000000
Si       2.35532223       2.12237523       1.66302676       0.00000000
Si      -1.41442812      -3.35419964      -0.99129210       0.00000000
Si      -3.22628337       1.46152251      -1.56301103       0.00000000
Si       0.38046924       2.39480919      -3.05503212       0.00000000
Si      -3.22654401       0.73081827       2.07797908       0.00000000
