10
Lattice="16.28999089631971 0.0 0.0 0.0 16.28999089631971 0.0 0.0 0.0 34.2284985734139" Properties=species:S:1:pos:R:3:initial_magmoms:R:1 pbc="T T T"
Si       0.03582171       1.59875436       1.71238428       0.00000000
Si      -1.37860641      -1.75544528       0.72109218       0.00000000
Si       2.17680012      -0.79676671      -0.53988641       0.00000000
Si      -3.49834266      -0.64357066       0.80026274       0.00000000
Si      -0.87664635       3.53190495       0.70699003       0.00000000
Si       2.17784268       1.46351478       2.64867116       0.00000000
Si       2.22594705      -0.85875179      -2.91616702       0.00000000
Si      -1.55931138      -3.61700132      -0.70281415       0.00000000
Si       2.74045041      -2.81545187       0.77671352       0.00000000
Si      -0.54687159      -2.97431195       2.62875016       0.00000000
