10
Lattice="16.28999089631971 0.0 0.0 0.0 16.28999089631971 0.0 0.0 0.0 34.2284985734139" Properties=species:S:1:pos:R:3:initial_magmoms:R:1 pbc="T T T"
Si       1.35799141      -1.35334062       1.35462782       0.00000000
Si      -1.35566641      -1.35586557      -1.35767415       0.00000000
Si      -1.35219936       1.35715248       1.36037821       0.00000000
Si       1.35839866       1.35935163      -1.35685267       0.00000000
Si      -2.71339176      -2.71361752      -0.00041074       0.00000000
Si       0.00100998      -2.71267922      -2.71476642       0.00000000
Si       2.71429681      -2.71352630      -0.00082148       0.00000000
Si      -2.71370127       0.00200367      -2.71521140       0.00000000
Si       2.70110191      -0.00871515       2.72849206       0.00000000
Si       2.71388956       2.71595025       0.00047920       0.00000000
