10
Lattice="16.28999089631971 0.0 0.0 0.0 16.28999089631971 0.0 0.0 0.0 34.2284985734139" Properties=species:S:1:pos:R:3:initial_magmoms:R:1 pbc="T T T"
Si      -2.29638501       0.37339254      -0.06349390       0.00000000
Si       0.60952293       2.23668021       0.36781965       0.00000000
Si       1.08499545      -1.49688095       1.44680521       0.00000000
Si       1.26324063      -0.46868873      -1.93517771       0.00000000
Si      -2.04942861       1.91118972      -1.83656535       0.00000000
Si       2.97057014       1.65501318       0.35457321       0.00000000
Si       2.73388784      -2.35806809       0.08320953       0.00000000
Si       3.60830735      -0.38745050      -0.84804575       0.00000000
Si      -2.86762644       1.00747590       2.20229706       0.00000000
Si       0.43220628      -2.63621984      -2.64641207       0.00000000
