10
Lattice="16.28999089631971 0.0 0.0 0.0 16.28999089631971 0.0 0.0 0.0 34.2284985734139" Properties=species:S:1:pos:R:3:initial_magmoms:R:1 pbc="T T T"
Si       1.35703845      -1.35723393       1.35726341       0.00000000
Si      -1.35817875      -1.35628911      -1.35712650       0.00000000
Si      -1.35731538       1.35762489       1.35695536       0.00000000
Si       1.35778779       1.35698958      -1.35743456       0.00000000
Si      -0.00360009       2.71210581       2.71373957       0.00000000
Si      -2.71342530      -0.00089595      -2.71401340       0.00000000
Si       2.71401174      -0.00026064       2.71469797       0.00000000
Si       2.71451673       2.71466334      -0.00006846       0.00000000
Si      -0.00084708      -2.71489140       2.71456105       0.00000000
Si      -2.71487511       2.71459818      -0.00034229       0.00000000
