10
Lattice="16.28999089631971 0.0 0.0 0.0 16.28999089631971 0.0 0.0 0.0 34.2284985734139" Properties=species:S:1:pos:R:3:initial_magmoms:R:1 pbc="T T T"
Si       0.10766061       1.90192266       1.37838241       0.00000000
Si       0.91246806      -1.93315059       1.00539425       0.00000000
Si      -2.31381531      -0.47162808      -0.55761678       0.00000000
Si       1.29293730       0.46165860      -2.04963787       0.00000000
Si      -2.14716861       2.60622081       1.43900111       0.00000000
Si       0.87664635      -3.53190495      -0.70699003       0.00000000
Si      -0.11380194      -2.02105143       3.14885249       0.00000000
Si      -3.38188545       1.62970047      -0.29275651       0.00000000
Si       1.27812969       1.30329774       3.31691451       0.00000000
Si      -3.10852296      -2.05472286       1.07340632       0.00000000
