10
Lattice="16.28999089631971 0.0 0.0 0.0 16.28999089631971 0.0 0.0 0.0 34.2284985734139" Properties=species:S:1:pos:R:3:initial_magmoms:R:1 pbc="T T T"
Si       1.24814862       0.54688788      -1.90293444       0.00000000
Si       1.32633084       0.17777277       1.92545681       0.00000000
Si      -1.98966060       1.11407310       0.64849350       0.00000000
Si      -0.21330126      -2.25761481      -0.72673989       0.00000000
Si      -2.46539376      -0.68173650       2.00332668       0.00000000
Si      -2.35532223      -2.12237523      -1.66302676       0.00000000
Si       3.14480798      -0.79399089      -1.60983564       0.00000000
Si       0.18248058       1.84808421       3.12578247       0.00000000
Si       1.83704026      -2.75384079      -1.88072013       0.00000000
Si      -3.16012968       1.71269802      -1.29003860       0.00000000
