10
Lattice="16.28999089631971 0.0 0.0 0.0 16.28999089631971 0.0 0.0 0.0 34.2284985734139" Properties=species:S:1:pos:R:3:initial_magmoms:R:1 pbc="T T T"
Si       0.86356548       1.82177586       1.21856946       0.00000000
Si      -1.29885057       1.40537088      -1.40699745       0.00000000
Si      -1.16712963      -1.62741987       1.28151570       0.00000000
Si       1.43127198      -1.28721951      -1.39580472       0.00000000
Si       0.45134703      -3.45613527       1.46658930       0.00000000
Si      -2.65515597      -2.70384678      -0.14838062       0.00000000
Si      -2.78612757       2.58196500       0.01047393       0.00000000
Si      -0.92794356       3.49018137       1.22390911       0.00000000
Si       2.42984898      -2.94194142      -0.02707476       0.00000000
Si      -2.64200994       0.06470388      -2.77220188       0.00000000
