10
Lattice="16.28999089631971 0.0 0.0 0.0 16.28999089631971 0.0 0.0 0.0 34.2284985734139" Properties=species:S:1:pos:R:3:initial_magmoms:R:1 pbc="T T T"
Si       1.61254710      -1.62401526      -0.46348836       0.00000000
Si      -2.17792413      -0.83624715       0.41409661       0.00000000
Si      -0.08298126       1.08885618      -2.12785003       0.00000000
Si       0.70449363       1.05472863       2.12569363       0.00000000
Si       3.46325400      -0.16376337      -0.51873319       0.00000000
Si      -2.91133251       1.00708038       1.69992510       0.00000000
Si      -1.14935724       2.45864970       2.36033012       0.00000000
Si       0.22626810       3.34705743      -1.49167880       0.00000000
Si       0.42746589      -0.79056999      -3.62781213       0.00000000
Si       1.58068386      -3.25997109       1.25351678       0.00000000
