10
Lattice="16.28999089631971 0.0 0.0 0.0 16.28999089631971 0.0 0.0 0.0 34.2284985734139" Properties=species:S:1:pos:R:3:initial_magmoms:R:1 pbc="T T T"
Si      -1.35654975      -1.35583299      -1.35674998       0.00000000
Si       1.35878148       1.35897355      -1.35664730       0.00000000
Si      -1.35342207       1.35761161       1.36428026       0.00000000
Si       1.35959598      -1.35483930       1.36178158       0.00000000
Si      -2.71383255       0.00174303      -2.71384225       0.00000000
Si       0.00118917      -2.71358820      -2.71449260       0.00000000
Si       2.71432125      -2.71463076       0.00054766       0.00000000
Si       2.71570590       0.00216657      -2.71408185       0.00000000
Si       0.00120546       2.71610405      -2.71435568       0.00000000
Si      -2.71539639      -2.71523349       0.00006846       0.00000000
