10
Lattice="16.28999089631971 0.0 0.0 0.0 16.28999089631971 0.0 0.0 0.0 34.2284985734139" Properties=species:S:1:pos:R:3:initial_magmoms:R:1 pbc="T T T"
Si       1.35472527      -1.35979146      -1.36123392       0.00000000
Si      -1.35959598       1.35483930      -1.36178158       0.00000000
Si       1.36301688       1.35185823       1.36760042       0.00000000
Si      -1.37090124      -1.37393118       1.35993324       0.00000000
Si      -2.71301805       2.71245091       0.00249868       0.00000000
Si       2.71087522       2.71486673      -0.00304634       0.00000000
Si      -2.71406061      -2.71459818      -0.00527119       0.00000000
Si      -0.00081450       2.71381285      -2.71842888       0.00000000
Si       2.71390272      -0.00057015      -2.71870270       0.00000000
Si       2.71692765      -2.71601541      -0.00219063       0.00000000
