10
Lattice="16.28999089631971 0.0 0.0 0.0 16.28999089631971 0.0 0.0 0.0 34.2284985734139" Properties=species:S:1:pos:R:3:initial_magmoms:R:1 pbc="T T T"
Si       2.30636168       0.05247009       0.40225354       0.00000000
Si      -0.08508267      -2.18114955      -0.85646597       0.00000000
Si      -0.97000434       0.26244819       2.15133079       0.00000000
Si      -0.56365029       2.01868516      -1.31659993       0.00000000
Si       3.15619469      -0.09632277      -1.88068591       0.00000000
Si      -2.34030285      -2.43942750      -1.61585986       0.00000000
Si      -3.28732200      -0.15886008       1.85203664       0.00000000
Si       0.06778269      -1.37187864       3.55918396       0.00000000
Si       2.95744040       2.08482908       1.41801903       0.00000000
Si       0.76272453      -3.82699341       0.63692426       0.00000000
