10
Lattice="16.28999089631971 0.0 0.0 0.0 16.28999089631971 0.0 0.0 0.0 34.2284985734139" Properties=species:S:1:pos:R:3:initial_magmoms:R:1 pbc="T T T"
Si      -0.82991034       0.14221170       2.15078314       0.00000000
Si      -1.03778703       1.63432683      -1.40785316       0.00000000
Si       2.31220979       0.24759171       0.57445721       0.00000000
Si      -0.11811879      -2.29780224      -0.73420170       0.00000000
Si       2.45442149      -1.73232747       1.82930890       0.00000000
Si       3.18646151       0.01070253      -1.57225273       0.00000000
Si      -2.87687916      -1.07931024       1.91022512       0.00000000
Si       0.68117679      -1.21697703       3.39553741       0.00000000
Si       0.00112401       2.30974281       2.86201751       0.00000000
Si      -0.06778269       1.37187864      -3.55918396       0.00000000
