10
Lattice="16.28999089631971 0.0 0.0 0.0 16.28999089631971 0.0 0.0 0.0 34.2284985734139" Properties=species:S:1:pos:R:3:initial_magmoms:R:1 pbc="T T T"
Si       1.18967499       1.82097765      -0.77034702       0.00000000
Si      -0.41546016       0.85615353       2.14992743       0.00000000
Si      -1.79168823      -0.94011219      -1.25088118       0.00000000
Si       1.36192545      -1.66206870       1.06108405       0.00000000
Si       1.50656959      -0.33378210       2.96768094       0.00000000
Si      -2.26383759      -2.73655710       0.19534215       0.00000000
Si      -0.04841388      -3.50107938       0.76469931       0.00000000
Si       2.83856738       0.95979051      -2.13394271       0.00000000
Si       2.11246506       2.77892739       1.20984119       0.00000000
Si      -2.68418475       0.35517087       2.58219938       0.00000000
