10
Lattice="16.28999089631971 0.0 0.0 0.0 16.28999089631971 0.0 0.0 0.0 34.2284985734139" Properties=species:S:1:pos:R:3:initial_magmoms:R:1 pbc="T T T"
Si       1.35558864       1.35772263       1.35750301       0.00000000
Si       1.35782037      -1.35716877      -1.35763993       0.00000000
Si      -1.35754996       1.35765747      -1.35763993       0.00000000
Si      -1.35768516      -1.35848826       1.35767415       0.00000000
Si       0.00032580      -2.71006956       2.71466374       0.00000000
Si       0.00019548       2.71329498      -2.71507448       0.00000000
Si      -2.71229219       0.00014661       2.71620402       0.00000000
Si       0.00094482      -2.71375110      -2.71541677       0.00000000
Si       2.71464705      -2.71458189       0.00000000       0.00000000
Si       2.71505430       0.00245979      -2.71438991       0.00000000
