10
Lattice="16.28999089631971 0.0 0.0 0.0 16.28999089631971 0.0 0.0 0.0 34.2284985734139" Properties=species:S:1:pos:R:3:initial_magmoms:R:1 pbc="T T T"
Si       1.35801096      -1.35158130       1.35698958       0.00000000
Si      -1.35742230      -1.35643572      -1.35763993       0.00000000
Si      -1.35460702       1.35863487       1.35852987       0.00000000
Si       1.35768516       1.35848826      -1.35767415       0.00000000
Si       2.68963701      -0.01244556       2.73167531       0.00000000
Si       2.71262220      -2.71490769       0.00003423       0.00000000
Si       2.71327380       2.71621089      -0.00017114       0.00000000
Si       0.00018408      -2.71397916      -2.71572482       0.00000000
Si      -2.71578313      -2.71419093      -0.00041074       0.00000000
Si      -2.71527814       0.00073305      -2.71517717       0.00000000
