10
Lattice="16.28999089631971 0.0 0.0 0.0 16.28999089631971 0.0 0.0 0.0 34.2284985734139" Properties=species:S:1:pos:R:3:initial_magmoms:R:1 pbc="T T T"
Si      -0.14221170       1.97991918      -1.25485169       0.00000000
Si       1.83000231      -0.91696410       1.15507556       0.00000000
Si      -1.02806027      -1.78339662      -1.22716082       0.00000000
Si      -1.77324469       0.51535044       1.56622851       0.00000000
Si       1.35721764      -1.79142759      -2.26770775       0.00000000
Si      -1.51894639      -2.84366385       0.81289307       0.00000000
Si      -2.45442149       1.73232747      -1.82930890       0.00000000
Si       0.64640349      -2.94959772       1.81178390       0.00000000
Si       2.07228348       0.43875486       2.99653558       0.00000000
Si      -2.57254028      -0.56547477      -2.56351060       0.00000000
