10
Lattice="16.28999089631971 0.0 0.0 0.0 16.28999089631971 0.0 0.0 0.0 34.2284985734139" Properties=species:S:1:pos:R:3:initial_magmoms:R:1 pbc="T T T"
Si      -1.17008368      -1.95745527      -0.47690594       0.00000000
Si       0.49088612       1.06026723      -2.04005388       0.00000000
Si      -1.33036099       1.30787523       1.44208168       0.00000000
Si       2.16534988      -0.10593387       0.99889083       0.00000000
Si       1.51894639       2.84366385      -0.81289307       0.00000000
Si      -2.93616403      -0.81801864      -1.60415371       0.00000000
Si      -0.25429830       3.35901429       0.75333545       0.00000000
Si      -1.08571777      -0.28859364       3.28778604       0.00000000
Si       1.33319152      -0.19679949       3.27772286       0.00000000
Si       1.54755163      -0.79936659      -3.20981348       0.00000000
