10
Lattice="16.28999089631971 0.0 0.0 0.0 16.28999089631971 0.0 0.0 0.0 34.2284985734139" Properties=species:S:1:pos:R:3:initial_magmoms:R:1 pbc="T T T"
Si       1.35774544       1.35563751      -1.35743456       0.00000000
Si      -1.35839540      -1.35672894      -1.35729764       0.00000000
Si       1.35754996      -1.35765747       1.35763993       0.00000000
Si      -1.35776716       1.35793440       1.35733187       0.00000000
Si       2.71524001       0.00013032      -2.71014557       0.00000000
Si       2.71313860       0.00006516       2.71514294       0.00000000
Si      -0.00061250       2.71435383       2.71490334       0.00000000
Si       2.71470244       2.71497285       0.00030806       0.00000000
Si       2.71537033      -2.71482624       0.00000000       0.00000000
Si      -2.71541335      -2.71541268       0.00013691       0.00000000
