10
Lattice="10.86 0.0 0.0 0.0 10.86 0.0 0.0 0.0 10.86" Properties=species:S:1:pos:R:3:initial_magmoms:R:1 pbc="T T T"
Si      -1.35750000      -1.35750000       1.35750000       0.00000000
Si       1.35750000      -1.35750000      -1.35750000       0.00000000
Si       1.35750000       1.35750000       1.35750000       0.00000000
Si      -1.35750000       1.35750000      -1.35750000       0.00000000
Si      -0.17323872      -2.52359250      -2.49773484       0.00000000
Si      -2.56784700       2.50784550      -0.11946000       0.00000000
Si      -0.32720094       2.78525334       2.35877028       0.00000000
Si       0.19054956       2.62353708      -2.60965800       0.00000000
Si       0.09477522      -2.58774252       2.75206518       0.00000000
Si      -2.41394994      -2.92882254      -0.34251354       0.00000000
