10
Lattice="10.86 0.0 0.0 0.0 10.86 0.0 0.0 0.0 10.86" Properties=species:S:1:pos:R:3:initial_magmoms:R:1 pbc="T T T"
Si      -1.91952672      -0.56247198      -1.03035336       0.00000000
Si      -1.49989632       1.79588562       1.00913292       0.00000000
Si       0.74081490       2.20111566      -1.14608838       0.00000000
Si       0.02154624      -1.88411226       1.83876090       0.00000000
Si      -0.44344638      -2.06279184      -2.72085354       0.00000000
Si       2.27155362       0.65220816      -2.72085354       0.00000000
Si       3.42819792      -0.74998074      -1.20541656       0.00000000
Si      -3.15844638      -2.06279184      -0.00585354       0.00000000
Si       1.10460318      -3.51175476      -1.25801154       0.00000000
Si       2.27155362       3.36720816      -0.00585354       0.00000000
