10
Lattice="10.86 0.0 0.0 0.0 10.86 0.0 0.0 0.0 10.86" Properties=species:S:1:pos:R:3:initial_magmoms:R:1 pbc="T T T"
Si      -1.65855006       1.57132254      -1.01498646       0.00000000
Si       1.05644994       1.57132254       1.70001354       0.00000000
Si       1.49989632      -1.79588562      -1.00913292       0.00000000
Si      -1.65855006      -1.14367746       1.70001354       0.00000000
Si       2.24071122       0.40523004      -2.15522130       0.00000000
Si      -0.41963040      -2.35835760      -2.03948628       0.00000000
Si      -0.30105006       2.92882254      -2.37248646       0.00000000
Si       2.41394994       2.92882254       0.34251354       0.00000000
Si      -3.01605006       0.21382254      -2.37248646       0.00000000
Si      -3.01605006      -2.50117746       0.34251354       0.00000000
