10
Lattice="16.28999089631971 0.0 0.0 0.0 16.28999089631971 0.0 0.0 0.0 34.51530692428229" Properties=species:S:1:pos:R:3:initial_magmoms:R:1 pbc="T T T"
Si       1.43047866       1.68264527      -0.67418787       0.00000000
Si       0.45100983      -1.65843603      -1.64997065       0.00000000
Si      -2.31745028       0.42663510      -0.41152623       0.00000000
Si       0.55194267      -0.26428896       2.34258971       0.00000000
Si       1.02021501      -3.50116083      -0.39999812       0.00000000
Si      -0.76809793      -2.00406096       3.01753691       0.00000000
Si       3.63502065       0.73334322      -0.16487971       0.00000000
Si       0.65847927       3.61715282       0.59676999       0.00000000
Si      -3.44403410      -1.48973679       0.28789234       0.00000000
Si      -2.55907985      -0.00470781      -2.78928706       0.00000000
