10
Lattice="16.28999089631971 0.0 0.0 0.0 16.28999089631971 0.0 0.0 0.0 34.51530692428229" Properties=species:S:1:pos:R:3:initial_magmoms:R:1 pbc="T T T"
Si      -1.32004060      -1.73977200       0.67494720       0.00000000
Si      -0.87142703       1.79280802       1.30892472       0.00000000
Si       2.21579838      -0.63446292       0.72354478       0.00000000
Si      -0.55194267       0.26428896      -2.34258971       0.00000000
Si      -0.65118786      -3.49143570      -0.68847721       0.00000000
Si       3.46172274       1.17173970      -0.16470714       0.00000000
Si       0.39104145       3.61547495       0.62831700       0.00000000
Si       0.87853599       1.94693423      -3.01677757       0.00000000
Si      -0.98345988      -2.24404524       2.98167549       0.00000000
Si      -3.59307620      -1.55233926       0.24719877       0.00000000
