10
Lattice="16.28999089631971 0.0 0.0 0.0 16.28999089631971 0.0 0.0 0.0 34.51530692428229" Properties=species:S:1:pos:R:3:initial_magmoms:R:1 pbc="T T T"
Si      -1.23810679      -1.88382447       0.75481567       0.00000000
Si      -1.02059619       1.36897480       1.66809120       0.00000000
Si       2.31700326      -0.16074972       0.67870937       0.00000000
Si      -0.28621367       0.38212660      -2.38697641       0.00000000
Si      -1.04586524      -0.51746814       3.08560113       0.00000000
Si      -0.39824652      -3.65472666      -0.71422565       0.00000000
Si      -2.61869473       0.75857221      -2.69906399       0.00000000
Si       3.07316877      -2.25129429      -0.57064189       0.00000000
Si      -3.24726067       1.87483958       1.00895202       0.00000000
Si       0.97625481       2.20479353      -3.06758413       0.00000000
