10
Lattice="16.28999089631971 0.0 0.0 0.0 16.28999089631971 0.0 0.0 0.0 34.51530692428229" Properties=species:S:1:pos:R:3:initial_magmoms:R:1 pbc="T T T"
Si      -0.33658072       0.50427324      -2.30672828       0.00000000
Si       2.22027813      -0.47640105       0.82788461       0.00000000
Si      -1.07638016      -2.05130196       0.77231494       0.00000000
Si      -0.83986027       1.77090219       1.46904131       0.00000000
Si       2.36797956      -2.69638596      -0.47655311       0.00000000
Si       0.39824652       3.65472666       0.71422565       0.00000000
Si       3.47141529       1.40343237       0.14358376       0.00000000
Si      -3.15951785       1.87108569       0.99169435       0.00000000
Si      -2.60961632       0.69170598      -2.73447672       0.00000000
Si       0.98345988       2.24404524      -2.98167549       0.00000000
