10
Lattice="16.28999089631971 0.0 0.0 0.0 16.28999089631971 0.0 0.0 0.0 34.51530692428229" Properties=species:S:1:pos:R:3:initial_magmoms:R:1 pbc="T T T"
Si      -1.25208198      -1.04537817      -1.63688935       0.00000000
Si      -0.48751083       2.27035359      -0.03354890       0.00000000
Si      -0.65352222      -1.05208965       1.99577971       0.00000000
Si       2.26722591      -0.06390567      -0.65475574       0.00000000
Si      -0.46162602      -3.21948229      -1.06493587       0.00000000
Si       0.00951336      -3.17304602       1.28928550       0.00000000
Si       0.46007847      -0.63594531      -3.43731231       0.00000000
Si       0.19989459       2.73390183       2.23124326       0.00000000
Si       2.19027195       1.56191778      -2.33095804       0.00000000
Si       3.29545071       0.74705940       1.33491476       0.00000000
