10
Lattice="16.28999089631971 0.0 0.0 0.0 16.28999089631971 0.0 0.0 0.0 34.51530692428229" Properties=species:S:1:pos:R:3:initial_magmoms:R:1 pbc="T T T"
Si      -1.35773892      -1.34809524       1.37509405       0.00000000
Si       1.35804843       1.37002158       1.37454180       0.00000000
Si       1.22763069      -1.35734796      -1.53517613       0.00000000
Si      -1.29632562       1.37764530      -1.46670463       0.00000000
Si       2.36529171       0.17718633      -2.95607689       0.00000000
Si      -2.70402597      -2.70337437       0.01105526       0.00000000
Si       2.70472644      -2.70982521      -0.01314689       0.00000000
Si      -2.70373275       2.72161917      -0.00299938       0.00000000
Si       2.71396287       2.71322982       0.01867624       0.00000000
Si       0.00057015      -2.70604593       2.73458372       0.00000000
