10
Lattice="16.28999089631971 0.0 0.0 0.0 16.28999089631971 0.0 0.0 0.0 34.51530692428229" Properties=species:S:1:pos:R:3:initial_magmoms:R:1 pbc="T T T"
Si       1.72002852       0.90899829      -1.39386693       0.00000000
Si       0.29624994       2.54814696       0.17592462       0.00000000
Si      -1.08028764      -2.00669994      -1.31434362       0.00000000
Si      -2.19638070      -1.37456649       0.94641024       0.00000000
Si       0.01550808      -0.15545547      -2.81148041       0.00000000
Si      -0.84823659      -2.07078480       2.75152729       0.00000000
Si      -1.61297064       2.27146131       2.22482341       0.00000000
Si      -3.26076930       0.75168576       1.46810940       0.00000000
Si       0.88195689       0.12707829       3.85788156       0.00000000
Si       3.68888679      -0.90507240      -1.39900972       0.00000000
