10
Lattice="16.28999089631971 0.0 0.0 0.0 16.28999089631971 0.0 0.0 0.0 34.51530692428229" Properties=species:S:1:pos:R:3:initial_magmoms:R:1 pbc="T T T"
Si      -1.97897436       1.16172135      -0.62807539       0.00000000
Si       1.02716595      -0.79742808      -2.03267659       0.00000000
Si      -1.00424592      -2.05719894       0.77673290       0.00000000
Si       1.73374470       1.07206119       1.40011421       0.00000000
Si      -1.46952090       0.23571630       2.75811972       0.00000000
Si      -3.27789009       0.69520833       1.16647996       0.00000000
Si      -1.26019440       3.31972281      -0.90785663       0.00000000
Si       2.09323242      -2.77239510      -1.47915430       0.00000000
Si       3.74551083       0.42531561       0.22593733       0.00000000
Si      -3.40765623      -1.59741369       0.61955011       0.00000000
