10
Lattice="16.28999089631971 0.0 0.0 0.0 16.28999089631971 0.0 0.0 0.0 34.51530692428229" Properties=species:S:1:pos:R:3:initial_magmoms:R:1 pbc="T T T"
Si       0.71904060      -1.58128659       1.56313009       0.00000000
Si      -0.53890578       2.09235276       0.89950392       0.00000000
Si      -2.09245050      -0.77721219      -0.78370500       0.00000000
Si       1.93020210       0.26816598      -1.37288162       0.00000000
Si      -1.85477940       0.23521131      -2.98129582       0.00000000
Si       1.44557460       2.51509455       2.13974313       0.00000000
Si      -1.61311725      -3.03694470      -1.12771925       0.00000000
Si      -0.60183405      -3.45867651       1.01616572       0.00000000
Si       0.18674856      -0.76383810       3.65651914       0.00000000
Si      -1.24629903       3.45605382      -0.94968920       0.00000000
