10
Lattice="16.28999089631971 0.0 0.0 0.0 16.28999089631971 0.0 0.0 0.0 34.51530692428229" Properties=species:S:1:pos:R:3:initial_magmoms:R:1 pbc="T T T"
Si      -1.66727010       0.16037505      -1.67085243       0.00000000
Si       2.31787152      -0.08146629      -0.60840166       0.00000000
Si      -0.41101299      -2.29076659       0.61834207       0.00000000
Si      -0.16869924       1.77837930       1.63678580       0.00000000
Si      -3.40450316      -0.86260437      -0.39016125       0.00000000
Si      -2.46701136       2.05037343       1.94317835       0.00000000
Si      -2.07438978       2.51711451      -1.88771222       0.00000000
Si       0.83989611       3.67359048       0.50409634       0.00000000
Si       0.78547122       0.93727773       3.63515416       0.00000000
Si       3.56995350       0.96391188       1.02848769       0.00000000
