10
Lattice="16.28999089631971 0.0 0.0 0.0 16.28999089631971 0.0 0.0 0.0 34.51530692428229" Properties=species:S:1:pos:R:3:initial_magmoms:R:1 pbc="T T T"
Si      -0.71877996      -2.15800146       0.27978123       0.00000000
Si      -1.82918781       1.36570473      -0.49325853       0.00000000
Si       1.07825139      -0.10775835      -2.09860086       0.00000000
Si       1.19796660       1.32309009       1.91176940       0.00000000
Si       1.45743372       2.23904421      -2.13774124       0.00000000
Si       2.27631573       2.77348653       0.02630068       0.00000000
Si       1.26019440      -3.31972281       0.90785663       0.00000000
Si      -2.12929848      -2.75123439      -1.55809086       0.00000000
Si      -3.80912328       0.21822084      -0.01249455       0.00000000
Si      -2.00785653       1.76186124      -2.79760525       0.00000000
