10
Lattice="16.28999089631971 0.0 0.0 0.0 16.28999089631971 0.0 0.0 0.0 34.51530692428229" Properties=species:S:1:pos:R:3:initial_magmoms:R:1 pbc="T T T"
Si       1.63103625      -1.35240136      -1.08088196       0.00000000
Si       0.41101299       2.29076659      -0.61834207       0.00000000
Si       0.26026533      -0.24819770       2.38956506       0.00000000
Si      -2.12138643      -0.71846182      -0.91734834       0.00000000
Si      -2.99349017       1.42816222      -1.00850332       0.00000000
Si       3.51934047       0.03519617      -0.65479025       0.00000000
Si      -1.25625711       2.45114164      -2.28919450       0.00000000
Si       1.03803138      -3.46319440      -0.18745274       0.00000000
Si       2.72888451       2.20930030      -1.22674372       0.00000000
Si      -1.17021333      -1.93084297       3.06375293       0.00000000
