10
Lattice="16.28999089631971 0.0 0.0 0.0 16.28999089631971 0.0 0.0 0.0 34.51530692428229" Properties=species:S:1:pos:R:3:initial_magmoms:R:1 pbc="T T T"
Si       1.33592661       1.36493910       1.38467550       0.00000000
Si      -1.42402293       1.08662445      -1.55886400       0.00000000
Si      -1.38135942      -1.35309627       1.38136203       0.00000000
Si       1.44850680      -1.39501044      -1.46303565       0.00000000
Si      -0.22410153      -2.43799398      -2.84878255       0.00000000
Si       2.67636555       2.70013691      -0.00526014       0.00000000
Si      -2.17557837      -0.72513306      -3.03564852       0.00000000
Si       2.69125461      -2.72098386       0.02508229       0.00000000
Si      -2.72409525       2.70505224      -0.00239191       0.00000000
Si       2.69091252       0.00399105       2.74161104       0.00000000
