10
Lattice="16.28999089631971 0.0 0.0 0.0 16.28999089631971 0.0 0.0 0.0 34.51530692428229" Properties=species:S:1:pos:R:3:initial_magmoms:R:1 pbc="T T T"
Si       1.52567253       1.27913220      -1.19944210       0.00000000
Si       0.37864476       0.17410752       2.34276228       0.00000000
Si       0.74964951      -2.20504698      -0.58444802       0.00000000
Si      -2.20454199       0.94930205      -0.50930815       0.00000000
Si       0.86263695       3.40008857      -0.49294789       0.00000000
Si      -3.63502065      -0.73334322       0.16487971       0.00000000
Si      -0.86727960      -1.63209510       3.23101420       0.00000000
Si       3.75155442       0.41710925      -0.54851756       0.00000000
Si       1.05453315       1.23269592      -3.55366347       0.00000000
Si      -2.46480732       1.19749975      -2.89887322       0.00000000
