10
Lattice="16.28999089631971 0.0 0.0 0.0 16.28999089631971 0.0 0.0 0.0 34.51530692428229" Properties=species:S:1:pos:R:3:initial_magmoms:R:1 pbc="T T T"
Si       1.39246920      -1.26459270      -1.37978123       0.00000000
Si       1.34304534       1.35555606       1.34666032       0.00000000
Si      -1.43773911       1.19083158      -1.41298497       0.00000000
Si      -1.36666584      -1.36149376       1.34300170       0.00000000
Si      -0.54954315      -2.12274827      -2.54191468       0.00000000
Si      -2.39674770      -0.62037207      -2.79868010       0.00000000
Si       2.70400968      -0.00399105       2.70501099       0.00000000
Si      -0.00987174       2.71042794       2.70532162       0.00000000
Si      -0.01185912      -2.71930110       2.70473486       0.00000000
Si       2.71042794       2.71911051      -0.04465593       0.00000000
