10
Lattice="16.28999089631971 0.0 0.0 0.0 16.28999089631971 0.0 0.0 0.0 34.51530692428229" Properties=species:S:1:pos:R:3:initial_magmoms:R:1 pbc="T T T"
Si       1.43773911      -1.19083158       1.41298497       0.00000000
Si       1.11788496       1.70720829      -1.27619590       0.00000000
Si      -1.29973023       1.51606143       1.37009278       0.00000000
Si      -0.95900859      -1.81120365      -1.38569512       0.00000000
Si       0.88819596      -3.31357985      -1.12892971       0.00000000
Si       2.83020831      -2.45542428       0.03320374       0.00000000
Si       0.07107327      -2.55232534       2.75598667       0.00000000
Si      -2.64736935       0.16663041       2.75729825       0.00000000
Si      -2.79218745      -2.66288395      -0.08625035       0.00000000
Si      -1.12213665       2.42286057      -2.80154832       0.00000000
