10
Lattice="16.28999089631971 0.0 0.0 0.0 16.28999089631971 0.0 0.0 0.0 34.51530692428229" Properties=species:S:1:pos:R:3:initial_magmoms:R:1 pbc="T T T"
Si       1.26246848       1.82266692      -0.68060772       0.00000000
Si      -2.33248106       0.37644561      -0.31208758       0.00000000
Si       0.87142703      -1.79280802      -1.30892472       0.00000000
Si       0.28621367      -0.38212660       2.38697641       0.00000000
Si      -0.44861357      -3.53258002      -0.63397751       0.00000000
Si       0.81025808       3.54087096       0.90609634       0.00000000
Si       3.55267958       1.34017341      -0.40493381       0.00000000
Si       0.97796363       2.08863375      -3.05474443       0.00000000
Si      -3.51554231      -1.58600647       0.37293810       0.00000000
Si      -2.76190175       0.70401959      -2.66375482       0.00000000
