10
Lattice="16.28999089631971 0.0 0.0 0.0 16.28999089631971 0.0 0.0 0.0 34.51530692428229" Properties=species:S:1:pos:R:3:initial_magmoms:R:1 pbc="T T T"
Si       0.83153934       1.53437139       1.51360060       0.00000000
Si       1.16553321       0.00757485      -2.01245061       0.00000000
Si      -1.97113887       1.12106151      -0.71964455       0.00000000
Si       0.46954296      -2.02746969       1.19781988       0.00000000
Si       0.37087443       3.60826758       0.51966275       0.00000000
Si      -0.57058983      -3.69508418      -0.02971770       0.00000000
Si       3.50256177      -0.36551502      -1.42603522       0.00000000
Si       0.18134028      -1.63385442      -3.43748488       0.00000000
Si      -0.43549686       1.50558696       3.49022430       0.00000000
Si      -1.38411243       3.42894726      -1.01847825       0.00000000
