10
Lattice="16.28999089631971 0.0 0.0 0.0 16.28999089631971 0.0 0.0 0.0 34.51530692428229" Properties=species:S:1:pos:R:3:initial_magmoms:R:1 pbc="T T T"
Si      -0.07695396       1.62582345      -1.67620230       0.00000000
Si      -2.26722591       0.06390567       0.65475574       0.00000000
Si       0.92030355      -1.58118885      -1.50055381       0.00000000
Si       1.02822480       0.81096507       1.98967049       0.00000000
Si      -1.80714744      -0.57203964      -2.78255657       0.00000000
Si      -2.75473674       2.33425926       0.62120684       0.00000000
Si      -0.53133093      -3.42167703      -1.22936689       0.00000000
Si       2.11380669       2.45390931      -1.85412881       0.00000000
Si      -3.51930789      -0.98147250      -0.98213361       0.00000000
Si       3.18070395      -1.94395086      -0.72816984       0.00000000
