10
Lattice="16.28999089631971 0.0 0.0 0.0 16.28999089631971 0.0 0.0 0.0 34.51530692428229" Properties=species:S:1:pos:R:3:initial_magmoms:R:1 pbc="T T T"
Si       0.53452377      -0.74229023      -2.19755630       0.00000000
Si      -0.06323778      -1.50813200       1.84653544       0.00000000
Si       2.46060450      -0.03401732       0.08463158       0.00000000
Si      -2.22588189       0.86202295      -0.65092454       0.00000000
Si       2.75502996       0.04282898      -2.21150050       0.00000000
Si       0.02151909       1.66449930       3.26870494       0.00000000
Si      -1.00927953      -3.40119290       0.97564473       0.00000000
Si      -1.11747771      -0.38967689       3.55580342       0.00000000
Si      -3.75155442      -0.41710925       0.54851756       0.00000000
Si      -1.37769417       3.07216707       1.84805411       0.00000000
