10
Lattice="16.28999089631971 0.0 0.0 0.0 16.28999089631971 0.0 0.0 0.0 34.51530692428229" Properties=species:S:1:pos:R:3:initial_magmoms:R:1 pbc="T T T"
Si       1.70821827       1.54173447      -0.64371083       0.00000000
Si       0.28450485      -0.26596683       2.37413671       0.00000000
Si       0.77199939      -1.93450755      -1.27095786       0.00000000
Si      -2.43275579       0.44250156      -0.28768524       0.00000000
Si       0.75404781       2.38283604      -2.64207919       0.00000000
Si      -0.65847927      -3.61715282      -0.59676999       0.00000000
Si       2.57471595      -0.74846034       2.64981062       0.00000000
Si      -0.97796363      -2.08863375       3.05474443       0.00000000
Si      -1.54426431       2.65483017      -2.33568664       0.00000000
Si       2.29477230       2.84630283       1.28648975       0.00000000
