10
Lattice="16.28999089631971 0.0 0.0 0.0 16.28999089631971 0.0 0.0 0.0 34.51530692428229" Properties=species:S:1:pos:R:3:initial_magmoms:R:1 pbc="T T T"
Si       1.81843641      -0.49360329      -1.41624947       0.00000000
Si      -1.11788496      -1.70720829       1.27619590       0.00000000
Si       1.74210147       1.35016407       1.15062915       0.00000000
Si      -0.22825548       0.06890670      -2.69952930       0.00000000
Si      -2.24002161       0.71565228      -1.52535242       0.00000000
Si      -2.41761519      -0.19114686       2.64628868       0.00000000
Si       0.31508118       2.52801252       2.66707381       0.00000000
Si      -2.75704992       2.69586468      -0.29664132       0.00000000
Si       2.94879951      -2.53570140      -0.26457658       0.00000000
Si       0.31985415      -2.89803987       2.68918088       0.00000000
