10
Lattice="16.28999089631971 0.0 0.0 0.0 16.28999089631971 0.0 0.0 0.0 34.51530692428229" Properties=species:S:1:pos:R:3:initial_magmoms:R:1 pbc="T T T"
Si       1.35718506       1.35697329       1.35679747       0.00000000
Si       1.35747828      -1.35742941      -1.35745326       0.00000000
Si      -1.35764118       1.35728280      -1.35776390       0.00000000
Si      -1.35834165      -1.35744570       1.35728069       0.00000000
Si       2.71176372       0.00167787       2.71621811       0.00000000
Si       2.71437012      -2.71471221       0.00041418       0.00000000
Si       2.71472850       2.71487511      -0.00003452       0.00000000
Si      -2.71336014      -0.00172674       2.71649423       0.00000000
Si       2.71581993      -0.00074934      -2.71425074       0.00000000
Si      -2.71482624      -2.71529865      -0.00058676       0.00000000
