10
Lattice="16.28999089631971 0.0 0.0 0.0 16.28999089631971 0.0 0.0 0.0 34.51530692428229" Properties=species:S:1:pos:R:3:initial_magmoms:R:1 pbc="T T T"
Si      -0.72467694      -0.87462639       2.00302793       0.00000000
Si       2.24898111       0.47304531       0.35184924       0.00000000
Si      -1.38909717       1.69065765      -0.87247842       0.00000000
Si       2.15835984       1.55062881      -1.78924000       0.00000000
Si       1.18631925      -1.99040994       2.83163736       0.00000000
Si      -0.92014065       0.95027715       3.45636477       0.00000000
Si       0.01161477       2.32971435      -2.94954172       0.00000000
Si      -2.07736596      -0.92079225      -3.07079406       0.00000000
Si       2.14262370      -3.06151002       0.86633469       0.00000000
Si       0.40910706      -3.74938785      -0.82850589       0.00000000
