10
Lattice="16.28999089631971 0.0 0.0 0.0 16.28999089631971 0.0 0.0 0.0 34.51530692428229" Properties=species:S:1:pos:R:3:initial_magmoms:R:1 pbc="T T T"
Si      -1.59935546       1.78683381       0.20764769       0.00000000
Si       1.17775071       0.40197204      -2.10253561       0.00000000
Si       1.93051161       0.73803474       1.42393120       0.00000000
Si      -0.67099650      -1.94648396       1.49579211       0.00000000
Si      -1.49430451      -1.88509020      -1.26433091       0.00000000
Si       1.30751685       2.69459406      -1.55560575       0.00000000
Si      -1.99405875      -0.56483946       2.88085764       0.00000000
Si      -3.26409965       0.79008129       1.46840420       0.00000000
Si       0.73280565       2.17109862       2.87387174       0.00000000
Si       3.11588604       2.23510203       0.03603400       0.00000000
