10
Lattice="16.28999089631971 0.0 0.0 0.0 16.28999089631971 0.0 0.0 0.0 34.51530692428229" Properties=species:S:1:pos:R:3:initial_magmoms:R:1 pbc="T T T"
Si       0.12976614       2.29262202       0.54692986       0.00000000
Si      -1.17775071      -0.40197204       2.10253561       0.00000000
Si       2.40341031      -0.45978525       0.15718280       0.00000000
Si      -1.12741461       0.26696052      -2.31076657       0.00000000
Si       1.42868187       2.75913504      -1.24762550       0.00000000
Si       1.93813533       1.83312999       2.13856961       0.00000000
Si       2.10100275      -2.36509786      -1.35051568       0.00000000
Si      -2.67205522      -2.28706224       0.83820470       0.00000000
Si       0.75276090       0.33606270       3.52646681       0.00000000
Si       0.01816335       2.16590211      -3.08549759       0.00000000
