10
Lattice="16.28999089631971 0.0 0.0 0.0 16.28999089631971 0.0 0.0 0.0 34.51530692428229" Properties=species:S:1:pos:R:3:initial_magmoms:R:1 pbc="T T T"
Si      -1.35488817       1.35866745       1.36024901       0.00000000
Si      -1.34993601      -1.35765747      -1.36617874       0.00000000
Si       1.35845568      -1.35915615       1.36128447       0.00000000
Si       1.36334268       1.35161388      -1.39107119       0.00000000
Si      -0.13776453       2.58748731      -2.80643082       0.00000000
Si       2.71368594      -2.71404432       0.00310638       0.00000000
Si      -2.71189404      -2.71612944      -0.00217447       0.00000000
Si       0.07708428      -2.53550592      -2.88262340       0.00000000
Si      -2.71322982       0.00019548       2.71808194       0.00000000
Si       0.00138465      -2.71502172       2.71780582       0.00000000
