10
Lattice="16.28999089631971 0.0 0.0 0.0 16.28999089631971 0.0 0.0 0.0 34.51530692428229" Properties=species:S:1:pos:R:3:initial_magmoms:R:1 pbc="T T T"
Si      -1.35591444      -1.34320824       1.35586556       0.00000000
Si      -1.24274781       1.32597342      -1.48811794       0.00000000
Si       1.24849818      -1.43664768      -1.38454434       0.00000000
Si       1.35848826       1.37236734       1.35741875       0.00000000
Si       2.23844148       0.18296928      -2.82267860       0.00000000
Si       0.68263245       2.07923931      -2.99290819       0.00000000
Si      -2.69125461       2.72098386      -0.02508229       0.00000000
Si       0.00154755      -2.70301599       2.71580393       0.00000000
Si      -2.71396287      -2.71322982      -0.01867624       0.00000000
Si       2.72345994      -2.70389565      -0.01103800       0.00000000
