10
Lattice="16.28999089631971 0.0 0.0 0.0 16.28999089631971 0.0 0.0 0.0 34.51530692428229" Properties=species:S:1:pos:R:3:initial_magmoms:R:1 pbc="T T T"
Si       1.35720135       1.35767376       1.35724617       0.00000000
Si      -1.35754344      -1.35790182       1.35683199       0.00000000
Si      -1.35710361       1.35785295      -1.35738423       0.00000000
Si       1.35751086      -1.35736425      -1.35766036       0.00000000
Si      -2.71098180       0.00089595       2.71735712       0.00000000
Si       2.71458189      -0.00149868      -2.71418171       0.00000000
Si      -0.00296478      -2.71319724       2.71625263       0.00000000
Si      -2.71472850      -2.71487511       0.00003452       0.00000000
Si       0.00109143      -2.71562445      -2.71421622       0.00000000
Si       2.71518462      -2.71487511       0.00020709       0.00000000
