10
Lattice="16.28999089631971 0.0 0.0 0.0 16.28999089631971 0.0 0.0 0.0 34.51530692428229" Properties=species:S:1:pos:R:3:initial_magmoms:R:1 pbc="T T T"
Si       1.35817875       1.35547461       1.35810906       0.00000000
Si      -1.35746199       1.35698958      -1.35738423       0.00000000
Si       1.35778779      -1.35747828      -1.35741875       0.00000000
Si      -1.35883035      -1.35948195       1.35759133       0.00000000
Si      -0.00272043       2.71353933      -2.71411268       0.00000000
Si       2.71503801       2.71409319      -0.00013806       0.00000000
Si      -0.00083079      -2.71445157      -2.71483750       0.00000000
Si      -2.71490769       2.71438641      -0.00013806       0.00000000
Si      -2.71611315      -0.00100998      -2.71387107       0.00000000
Si       2.71489140      -2.71533123      -0.00003452       0.00000000
