10
Lattice="16.28999089631971 0.0 0.0 0.0 16.28999089631971 0.0 0.0 0.0 34.51530692428229" Properties=species:S:1:pos:R:3:initial_magmoms:R:1 pbc="T T T"
Si      -1.34405532      -1.35244467      -1.38123432       0.00000000
Si       1.36852290       1.36391283      -1.38261494       0.00000000
Si      -1.32882417       1.35700587       1.48547061       0.00000000
Si       1.32843321      -1.41117012       1.47376991       0.00000000
Si       0.63636885       2.18689992       2.58937429       0.00000000
Si       2.32692876       0.14226057       3.01864140       0.00000000
Si      -2.71925712      -2.70306486       0.01456547       0.00000000
Si      -2.70632286       2.71653669       0.00459054       0.00000000
Si       2.72585457      -2.70664866      -0.00352056       0.00000000
Si       2.72865645       2.70632286      -0.03054606       0.00000000
