10
Lattice="16.28999089631971 0.0 0.0 0.0 16.28999089631971 0.0 0.0 0.0 34.51530692428229" Properties=species:S:1:pos:R:3:initial_magmoms:R:1 pbc="T T T"
Si      -0.58479471      -0.82578897      -2.07129924       0.00000000
Si       2.28863097      -0.37089072       0.16315395       0.00000000
Si      -0.70276689      -1.22238531       1.85388720       0.00000000
Si      -0.76870881       2.21076477       0.30680673       0.00000000
Si       2.79709074       1.86628014       0.15255774       0.00000000
Si      -2.94236496      -0.53325315       1.74702775       0.00000000
Si       1.15773030       2.95324668       1.44498413       0.00000000
Si      -2.56318263       1.81354941       1.70788737       0.00000000
Si      -0.20364129      -3.42357156       1.20247945       0.00000000
Si      -1.13987646       1.01986803      -3.32872709       0.00000000
