10
Lattice="16.28999089631971 0.0 0.0 0.0 16.28999089631971 0.0 0.0 0.0 34.51530692428229" Properties=species:S:1:pos:R:3:initial_magmoms:R:1 pbc="T T T"
Si       1.35711990      -1.35679410      -1.35700457       0.00000000
Si       1.35814617       1.35625653       1.35752230       0.00000000
Si      -1.35772263       1.35798327      -1.35766036       0.00000000
Si      -1.35685926      -1.35861858       1.35824712       0.00000000
Si       0.00109143      -2.71309950      -2.71511362       0.00000000
Si       0.00144981      -2.71217097       2.71608005       0.00000000
Si       2.71466334      -2.71415835       0.00000000       0.00000000
Si      -2.71503801      -2.71409319       0.00013806       0.00000000
Si       2.71466334       0.00110772      -2.71466492       0.00000000
Si      -0.00104256       2.71521299      -2.71469944       0.00000000
