10
Lattice="16.28999089631971 0.0 0.0 0.0 16.28999089631971 0.0 0.0 0.0 34.51530692428229" Properties=species:S:1:pos:R:3:initial_magmoms:R:1 pbc="T T T"
Si      -0.94604175      -1.89306090      -0.87089071       0.00000000
Si      -1.05423993       1.11845511       1.70926798       0.00000000
Si       2.01676716      -0.63444663       1.03449336       0.00000000
Si       0.06323778       1.50813200      -1.84653544       0.00000000
Si       2.52384228       1.47411468      -1.76190386       0.00000000
Si       3.19500657      -0.70556877      -0.99062438       0.00000000
Si       0.08475687       3.17263130       1.42216950       0.00000000
Si      -0.30577959      -3.57648579       0.66901057       0.00000000
Si      -2.93866713      -1.11402423      -1.88246589       0.00000000
Si      -3.30967188       1.26513027       1.04474441       0.00000000
