10
Lattice="16.28999089631971 0.0 0.0 0.0 16.28999089631971 0.0 0.0 0.0 34.51530692428229" Properties=species:S:1:pos:R:3:initial_magmoms:R:1 pbc="T T T"
Si      -1.36228776       1.35902583       1.34903498       0.00000000
Si       1.38134639      -1.35122292       1.36234409       0.00000000
Si      -0.95081472      -1.73548773      -1.30387996       0.00000000
Si       0.75528911       1.87846506      -1.26959795       0.00000000
Si       0.17154510       0.66570714      -3.25013366       0.00000000
Si       1.95605759      -0.82772748      -3.06713340       0.00000000
Si      -2.61555891      -2.73224025      -0.04312345       0.00000000
Si       2.57905235      -2.78428680      -0.08759645       0.00000000
Si      -2.63667075       2.76741036      -0.27637802       0.00000000
Si      -2.70357378       0.00509877       2.72821219       0.00000000
