10
Lattice="16.28999089631971 0.0 0.0 0.0 16.28999089631971 0.0 0.0 0.0 34.51530692428229" Properties=species:S:1:pos:R:3:initial_magmoms:R:1 pbc="T T T"
Si       1.35698958      -1.35685926      -1.35745326       0.00000000
Si      -1.35735122      -1.35863487       1.35624523       0.00000000
Si       1.35708732       1.35677781       1.35855776       0.00000000
Si      -1.35738054       1.35759231      -1.35759133       0.00000000
Si      -0.00068418       2.71485882      -2.71369849       0.00000000
Si       2.71430496      -0.00004887      -2.71490653       0.00000000
Si      -2.71494581      -2.71469592      -0.00034515       0.00000000
Si       2.71541268      -2.71484253      -0.00075934       0.00000000
Si       2.71500543       2.71549413       0.00003452       0.00000000
Si      -2.71579522       0.00092853      -2.71483750       0.00000000
