10
Lattice="16.28999089631971 0.0 0.0 0.0 16.28999089631971 0.0 0.0 0.0 34.51530692428229" Properties=species:S:1:pos:R:3:initial_magmoms:R:1 pbc="T T T"
Si       1.30710960       1.82711572      -0.67867486       0.00000000
Si       0.76393584      -1.80590355      -1.39928584       0.00000000
Si       0.42942069      -0.32757398       2.35166724       0.00000000
Si      -2.32129242       0.55151098      -0.38898773       0.00000000
Si      -0.36264798      -3.72227544      -0.69986727       0.00000000
Si       0.71172639       2.21346565      -3.01284283       0.00000000
Si      -3.39812658       0.47480463       1.70012142       0.00000000
Si      -0.75364056      -2.29002606       3.03669292       0.00000000
Si      -3.36142521      -1.11610350      -1.61652530       0.00000000
Si       2.76190175      -0.70401959       2.66375482       0.00000000
