10
Lattice="16.28999089631971 0.0 0.0 0.0 16.28999089631971 0.0 0.0 0.0 34.51530692428229" Properties=species:S:1:pos:R:3:initial_magmoms:R:1 pbc="T T T"
Si      -1.35523026       1.35488817       1.35817809       0.00000000
Si       1.34128602       1.35392706      -1.37917721       0.00000000
Si       1.35941611      -1.35801585       1.35772939       0.00000000
Si      -1.34842104      -1.35055503      -1.39183398       0.00000000
Si      -2.71230129      -0.00097740       2.71469944       0.00000000
Si      -2.71368594       2.71404432      -0.00310638       0.00000000
Si       0.00239463       2.71397916       2.71459589       0.00000000
Si      -2.71580364      -2.71410948      -0.00051773       0.00000000
Si       0.00249237      -2.71564074       2.71494104       0.00000000
Si       2.70357378      -0.00509877      -2.72821219       0.00000000
