10
Lattice="16.28999089631971 0.0 0.0 0.0 16.28999089631971 0.0 0.0 0.0 34.51530692428229" Properties=species:S:1:pos:R:3:initial_magmoms:R:1 pbc="T T T"
Si      -2.24898111      -0.47304531      -0.35184924       0.00000000
Si       0.51839667       1.03765671       2.03326335       0.00000000
Si      -0.09062127       1.07758350      -2.14108923       0.00000000
Si       1.41923367      -1.92344175      -0.62838603       0.00000000
Si       0.32360085      -0.80529615       3.40669721       0.00000000
Si      -0.10635741      -3.53455533       0.51448545       0.00000000
Si       0.75466683      -0.92774808      -3.38098329       0.00000000
Si      -1.06266186      -2.46345525       2.47978813       0.00000000
Si      -2.97365805      -1.34767170       1.65117869       0.00000000
Si      -1.44215370       2.06350317       2.73540863       0.00000000
