10
Lattice="16.28999089631971 0.0 0.0 0.0 16.28999089631971 0.0 0.0 0.0 34.51530692428229" Properties=species:S:1:pos:R:3:initial_magmoms:R:1 pbc="T T T"
Si      -1.36334268      -1.35161388       1.39107119       0.00000000
Si       1.35540945       1.36247931       1.38979413       0.00000000
Si      -1.50110721       1.23587343      -1.41535963       0.00000000
Si       1.41724629      -1.30334661      -1.61041264       0.00000000
Si       2.69162928      -2.71173114       0.01500036       0.00000000
Si      -2.71327869      -2.70927135       0.02489245       0.00000000
Si       2.71716342       2.70936909       0.00411768       0.00000000
Si      -2.71779102       2.71985985       0.01595989       0.00000000
Si       2.70928483       0.00456120       2.75145826       0.00000000
Si      -0.00488700      -2.71077003       2.75235566       0.00000000
