10
Lattice="16.28999089631971 0.0 0.0 0.0 16.28999089631971 0.0 0.0 0.0 34.51530692428229" Properties=species:S:1:pos:R:3:initial_magmoms:R:1 pbc="T T T"
Si       1.35654694       1.35624024      -1.35731520       0.00000000
Si       1.35754623      -1.35725022       1.35759133       0.00000000
Si      -1.35739683       1.35767376       1.35766036       0.00000000
Si      -1.35762489      -1.35909099      -1.35641780       0.00000000
Si       0.00115659      -2.71326240       2.71463041       0.00000000
Si      -0.00239463      -2.71397916      -2.71459589       0.00000000
Si      -0.00097740       2.71464705       2.71394010       0.00000000
Si      -2.71469592      -2.71495656       0.00010355       0.00000000
Si      -2.71494027       2.71503801       0.00065579       0.00000000
Si      -2.71500543       0.00008145       2.71501008       0.00000000
