10
Lattice="16.28999089631971 0.0 0.0 0.0 16.28999089631971 0.0 0.0 0.0 34.51530692428229" Properties=species:S:1:pos:R:3:initial_magmoms:R:1 pbc="T T T"
Si       1.34241003       1.14992739      -1.74630293       0.00000000
Si      -1.19246058      -1.42488630      -1.78961966       0.00000000
Si       0.71682516      -0.79366509       2.37855468       0.00000000
Si      -1.27790163       2.24772678       1.48063846       0.00000000
Si       2.89919646       2.43361197      -0.44662832       0.00000000
Si       1.78121376      -2.91991734       1.85685552       0.00000000
Si      -2.85097969       2.66401773      -0.34170173       0.00000000
Si       2.36462382       0.72611046       3.13526869       0.00000000
Si      -1.72853190      -3.54758733      -0.99776905       0.00000000
Si       0.05317056       2.45931759      -3.38871473       0.00000000
