10
Lattice="16.28999089631971 0.0 0.0 0.0 16.28999089631971 0.0 0.0 0.0 34.51530692428229" Properties=species:S:1:pos:R:3:initial_magmoms:R:1 pbc="T T T"
Si      -0.97697646       0.06916734       2.15534406       0.00000000
Si      -1.89869724      -0.72640368      -1.29960558       0.00000000
Si       0.79720002       1.92391416      -1.21915035       0.00000000
Si       1.79408286      -1.84902903       0.02999382       0.00000000
Si      -0.56549106      -2.05980534      -2.66399642       0.00000000
Si       2.14700571       0.66373605      -2.66199453       0.00000000
Si      -3.03090111       1.52203986       1.43445696       0.00000000
Si       3.44116476      -0.62483553      -1.16268328       0.00000000
Si      -2.65777866      -2.57922828      -0.04407607       0.00000000
Si       0.69045165      -3.50215452      -1.23457870       0.00000000
