10
Lattice="16.28999089631971 0.0 0.0 0.0 16.28999089631971 0.0 0.0 0.0 34.51530692428229" Properties=species:S:1:pos:R:3:initial_magmoms:R:1 pbc="T T T"
Si       1.34980569      -1.26017811      -1.44284418       0.00000000
Si       1.67474232       1.13791581       1.28621363       0.00000000
Si      -0.79720002      -1.92391416       1.21915035       0.00000000
Si      -1.37047770       1.45782209      -1.40135676       0.00000000
Si      -0.11997585       1.57289791       3.02364612       0.00000000
Si       2.64396474      -2.54874969       0.05646707       0.00000000
Si      -2.69589726      -2.65031784      -0.08045523       0.00000000
Si      -0.00713502      -2.61599481      -2.79784686       0.00000000
Si       3.45997224      -0.83857662       1.50193442       0.00000000
Si       2.70443799       0.10254555      -2.79884780       0.00000000
