10
Lattice="16.28999089631971 0.0 0.0 0.0 16.28999089631971 0.0 0.0 0.0 34.51530692428229" Properties=species:S:1:pos:R:3:initial_magmoms:R:1 pbc="T T T"
Si      -0.59021928       2.06342172       0.87323775       0.00000000
Si       2.34541791      -0.46880991       0.03472242       0.00000000
Si      -1.47892023      -1.34151408       1.32600980       0.00000000
Si      -1.61849295       1.51883073      -1.32780460       0.00000000
Si       2.20477005      -1.99572048      -1.84612125       0.00000000
Si      -1.70401545       0.07123617       3.19101094       0.00000000
Si       1.15256637      -0.39936564      -3.45315484       0.00000000
Si      -0.31772016       1.97082936       3.21513715       0.00000000
Si       0.95781942       3.66267033       0.18103289       0.00000000
Si      -0.64151649       1.44966339      -3.48314866       0.00000000
