10
Lattice="16.28999089631971 0.0 0.0 0.0 16.28999089631971 0.0 0.0 0.0 34.51530692428229" Properties=species:S:1:pos:R:3:initial_magmoms:R:1 pbc="T T T"
Si       2.31965757      -0.10018350       0.47734696       0.00000000
Si      -0.24399162       0.57976110      -2.29150702       0.00000000
Si      -1.06160301       1.72566486       1.25294086       0.00000000
Si      -1.24043463      -1.85911254       0.82646949       0.00000000
Si      -1.00435995      -0.77825475       2.88040825       0.00000000
Si       0.31050369       3.65848055       0.73148331       0.00000000
Si       3.15951785      -1.87108569      -0.99169435       0.00000000
Si      -3.55866453      -1.34249148       0.43109642       0.00000000
Si      -2.50227432       1.20384729      -2.64166501       0.00000000
Si      -3.71495079       0.81598239      -0.65347867       0.00000000
