10
Lattice="16.28999089631971 0.0 0.0 0.0 16.28999089631971 0.0 0.0 0.0 34.51530692428229" Properties=species:S:1:pos:R:3:initial_magmoms:R:1 pbc="T T T"
Si       1.28678131      -1.30140810       1.55548150       0.00000000
Si      -1.00226994      -1.70162082      -1.43307776       0.00000000
Si       1.83764395       0.68605335      -1.48357369       0.00000000
Si      -1.43161192       1.40494734       1.54534435       0.00000000
Si       2.58919939       2.49781086      -0.00678916       0.00000000
Si       0.66043081      -3.49671366      -1.06240590       0.00000000
Si       2.69418844      -2.64538197       0.09177625       0.00000000
Si      -2.73152905      -2.60776836      -0.06918597       0.00000000
Si      -2.76860509       2.69865027       0.04442813       0.00000000
Si      -0.96589112       3.62095749      -1.15115658       0.00000000
