10
Lattice="16.28999089631971 0.0 0.0 0.0 16.28999089631971 0.0 0.0 0.0 34.51530692428229" Properties=species:S:1:pos:R:3:initial_magmoms:R:1 pbc="T T T"
Si       1.35724045      -1.35672371       1.35700457       0.00000000
Si       1.35684949       1.35664586      -1.35835066       0.00000000
Si      -1.35750989       1.35755810       1.35697005       0.00000000
Si      -1.35815501      -1.35702058      -1.35769487       0.00000000
Si       0.00008471       2.71361915       2.71356043       0.00000000
Si      -2.71450111      -0.00173489       2.71314625       0.00000000
Si      -2.71525045       0.00097088      -2.71324979       0.00000000
Si      -0.00078518      -2.71439523       2.71463041       0.00000000
Si       2.71621741       0.00075911       2.71314625       0.00000000
Si       2.71478389      -2.71468845      -0.00024161       0.00000000
