10
Lattice="16.28999089631971 0.0 0.0 0.0 16.28999089631971 0.0 0.0 0.0 34.51530692428229" Properties=species:S:1:pos:R:3:initial_magmoms:R:1 pbc="T T T"
Si       1.46442425      -1.79256789      -0.76810407       0.00000000
Si       1.07638016       2.05130196      -0.77231494       0.00000000
Si      -1.95055338      -0.59792445      -1.39693880       0.00000000
Si       0.39238261      -0.13401783       2.74559065       0.00000000
Si      -3.29066652      -0.36165429       0.64315859       0.00000000
Si       1.47133935      -3.14186859       1.13572681       0.00000000
Si       3.29665829       1.57490091       0.05556968       0.00000000
Si       3.44435972      -0.64508400      -1.24886805       0.00000000
Si       0.23651989       3.82220415       0.69672637       0.00000000
Si      -2.19110781      -2.93866713      -1.69767084       0.00000000
