10
Lattice="16.28999089631971 0.0 0.0 0.0 16.28999089631971 0.0 0.0 0.0 34.51530692428229" Properties=species:S:1:pos:R:3:initial_magmoms:R:1 pbc="T T T"
Si       1.82918781      -1.36570473       0.49325853       0.00000000
Si      -1.97993547      -1.14748389       0.48076398       0.00000000
Si      -0.17866872       0.39615651      -2.30434672       0.00000000
Si      -0.14770143       2.21998491       1.30443772       0.00000000
Si       1.44673119       2.05620525      -2.48938339       0.00000000
Si      -2.36797956       2.69638596       0.47655311       0.00000000
Si       2.90743920      -1.47346308      -1.60534234       0.00000000
Si      -2.15961743      -2.67392205      -1.34047172       0.00000000
Si      -3.44435972       0.64508400       1.24886805       0.00000000
Si       1.11040785      -3.52370619       0.77303976       0.00000000
