10
Lattice="16.28999089631971 0.0 0.0 0.0 16.28999089631971 0.0 0.0 0.0 34.51530692428229" Properties=species:S:1:pos:R:3:initial_magmoms:R:1 pbc="T T T"
Si       0.70646472       1.85838179      -1.18416359       0.00000000
Si       1.42402293      -1.08662445       1.55886400       0.00000000
Si      -0.75155544      -1.81175751      -1.47678452       0.00000000
Si      -1.30007232       1.61842779       1.55647209       0.00000000
Si      -2.58919939      -2.49781086       0.00678916       0.00000000
Si       2.87252973      -2.48163489       0.09582835       0.00000000
Si       0.04266351      -2.43972072       2.94022603       0.00000000
Si      -0.19222200       1.47986505      -3.55125917       0.00000000
Si       2.61358389       2.88038218       0.09578003       0.00000000
Si      -3.55509050       1.12314663      -1.14436742       0.00000000
