10
Lattice="16.28999089631971 0.0 0.0 0.0 16.28999089631971 0.0 0.0 0.0 34.51530692428229" Properties=species:S:1:pos:R:3:initial_magmoms:R:1 pbc="T T T"
Si      -1.36175397      -1.34688978       1.38567645       0.00000000
Si       1.35057243       1.37187864       1.38650481       0.00000000
Si      -1.33699317       1.29370293      -1.50091622       0.00000000
Si       1.43161192      -1.40494734      -1.54534435       0.00000000
Si       0.46572080       2.21601015      -2.69650093       0.00000000
Si      -2.70631428       2.71676475       0.01311237       0.00000000
Si       2.71839323      -2.70635544       0.01013715       0.00000000
Si      -2.71716342      -2.70936909      -0.00411768       0.00000000
Si       2.72073899       2.71129131       0.00433858       0.00000000
Si      -0.00787859      -2.70480789       2.74734058       0.00000000
