10
Lattice="16.28999089631971 0.0 0.0 0.0 16.28999089631971 0.0 0.0 0.0 34.51530692428229" Properties=species:S:1:pos:R:3:initial_magmoms:R:1 pbc="T T T"
Si      -1.35777220       1.35486599       1.36111189       0.00000000
Si       1.35814454      -1.36042677       1.36104286       0.00000000
Si       1.37016656       1.33941267      -1.38216624       0.00000000
Si      -1.35057243      -1.37187864      -1.38650481       0.00000000
Si      -0.03627457       2.66918070      -2.74039265       0.00000000
Si      -2.71486764       2.71285745       0.00555697       0.00000000
Si       2.71808261       2.71067296      -0.00072482       0.00000000
Si       0.00038281       2.71188657       2.71880676       0.00000000
Si      -2.71232640      -2.71876842      -0.00082837       0.00000000
Si       2.71290239      -2.71873584       0.00158771       0.00000000
