10
Lattice="16.28999089631971 0.0 0.0 0.0 16.28999089631971 0.0 0.0 0.0 34.51530692428229" Properties=species:S:1:pos:R:3:initial_magmoms:R:1 pbc="T T T"
Si      -0.81600750      -1.71017307      -1.44546735       0.00000000
Si       1.78896617       0.80889624      -1.44550186       0.00000000
Si       0.15248906      -1.09475316       2.31235428       0.00000000
Si      -1.78522992       1.97649243      -0.21572079       0.00000000
Si      -2.11016655      -0.42160149      -2.94477860       0.00000000
Si       0.60915478       2.28882549      -2.93352661       0.00000000
Si       2.99524067       2.36316654      -0.07866043       0.00000000
Si      -2.46308940      -2.93436657      -0.25279025       0.00000000
Si      -3.45997224       0.83857662      -1.50193442       0.00000000
Si      -0.33891345       0.65347335       3.86385271       0.00000000
