10
Lattice="10.86 0.0 0.0 0.0 10.86 0.0 0.0 0.0 10.86" Properties=species:S:1:pos:R:3:initial_magmoms:R:1 pbc="T T T"
Si      -1.45142814      -1.46195148       1.03785762       0.00000000
Si      -1.45142814       1.25304852      -1.67714238       0.00000000
Si       1.26357186      -1.46195148      -1.67714238       0.00000000
Si       2.73228912      -0.16364934       2.36854428       0.00000000
Si      -0.03976932       2.71406604       2.45013546       0.00000000
Si      -2.80892814      -0.10445148       2.39535762       0.00000000
Si      -0.09392814      -2.81945148       2.39535762       0.00000000
Si      -2.80892814       2.61054852      -0.31964238       0.00000000
Si       2.62107186      -2.81945148      -0.31964238       0.00000000
Si       0.02901792       2.52746952      -2.95861152       0.00000000
