10
Lattice="10.86 0.0 0.0 0.0 10.86 0.0 0.0 0.0 10.86" Properties=species:S:1:pos:R:3:initial_magmoms:R:1 pbc="T T T"
Si       1.27591968       1.30275474       1.14742416       0.00000000
Si      -1.43908032      -1.41224526       1.14742416       0.00000000
Si      -1.43908032       1.30275474      -1.56757584       0.00000000
Si       2.44909290      -2.39240370      -0.23725842       0.00000000
Si       0.74280228      -2.82172122      -2.02646514       0.00000000
Si       2.63341968      -0.05474526       2.50492416       0.00000000
Si      -0.08158032       2.66025474       2.50492416       0.00000000
Si      -0.08158032      -2.76974526       2.50492416       0.00000000
Si      -2.79658032      -0.05474526       2.50492416       0.00000000
Si       2.29576056       2.97934326       0.02140506       0.00000000
