10
Lattice="10.86 0.0 0.0 0.0 10.86 0.0 0.0 0.0 10.86" Properties=species:S:1:pos:R:3:initial_magmoms:R:1 pbc="T T T"
Si       1.29283956       1.33390122       1.37229132       0.00000000
Si      -1.42216044       1.33390122      -1.34270868       0.00000000
Si      -1.42216044      -1.38109878       1.37229132       0.00000000
Si       1.50935538      -2.05208388      -1.18109016       0.00000000
Si       2.31268044       0.29548974       2.96127222       0.00000000
Si       2.65033956       2.69140122       0.01479132       0.00000000
Si      -0.06466044       2.69140122      -2.70020868       0.00000000
Si       2.51751090      -0.34144926      -2.86437930       0.00000000
Si      -0.06466044       2.69140122       2.72979132       0.00000000
Si      -2.77966044       2.69140122       0.01479132       0.00000000
