10
Lattice="10.86 0.0 0.0 0.0 10.86 0.0 0.0 0.0 10.86" Properties=species:S:1:pos:R:3:initial_magmoms:R:1 pbc="T T T"
Si      -1.06880862      -1.51689222       1.36738260       0.00000000
Si       1.64619138       1.19810778       1.36738260       0.00000000
Si       1.64619138      -1.51689222      -1.34761740       0.00000000
Si       0.12347820       2.41350468      -2.62716432       0.00000000
Si      -2.61063540      -2.49705066      -0.01729998       0.00000000
Si      -2.42630862      -0.15939222       2.72488260       0.00000000
Si       0.28869138       2.55560778       2.72488260       0.00000000
Si       0.48735336      -2.93671776      -2.54445456       0.00000000
Si       3.00369138       2.55560778       0.00988260       0.00000000
Si       0.28869138      -2.87439222       2.72488260       0.00000000
