10
Lattice="16.28999089631971 0.0 0.0 0.0 16.28999089631971 0.0 0.0 0.0 34.61538196595647" Properties=species:S:1:pos:R:3:initial_magmoms:R:1 pbc="T T T"
Si      -1.34254849      -1.34400466       1.38610798       0.00000000
Si       1.37375199       1.36953697       1.38365028       0.00000000
Si      -1.41400784       1.33619460      -1.46895994       0.00000000
Si       1.39152438      -1.46819962      -1.42496723       0.00000000
Si       0.48448089       2.05106659      -2.68151910       0.00000000
Si       2.28216384       0.38024527      -2.52260499       0.00000000
Si      -2.69857601      -0.31561696      -2.64963520       0.00000000
Si      -2.67805061      -2.72935513       0.01981039       0.00000000
Si      -2.69743571       2.72431600       0.02390193       0.00000000
Si       2.73900060      -2.70224857       0.02020847       0.00000000
