10
Lattice="16.28999089631971 0.0 0.0 0.0 16.28999089631971 0.0 0.0 0.0 34.61538196595647" Properties=species:S:1:pos:R:3:initial_magmoms:R:1 pbc="T T T"
Si      -1.54631915      -1.60687818       0.61414645       0.00000000
Si      -0.88587301       2.03500286      -0.71975804       0.00000000
Si       1.10262123       0.17021421       2.12988564       0.00000000
Si       0.95884569      -0.61511040      -2.16076258       0.00000000
Si       1.18390833       3.09613346      -1.13015824       0.00000000
Si       2.72504007      -1.50174252       1.78875086       0.00000000
Si       2.25442197       1.34372042      -2.45554734       0.00000000
Si      -0.15382321      -3.60867483       0.44612329       0.00000000
Si      -2.18381201      -0.99028539       2.82177828       0.00000000
Si      -3.40987886      -1.37512035      -0.84039271       0.00000000
