10
Lattice="16.28999089631971 0.0 0.0 0.0 16.28999089631971 0.0 0.0 0.0 34.61538196595647" Properties=species:S:1:pos:R:3:initial_magmoms:R:1 pbc="T T T"
Si      -2.01717508      -0.30783213      -1.19374673       0.00000000
Si      -0.59402137       1.80975777       1.46928532       0.00000000
Si       1.26925816       0.85266747      -1.88563937       0.00000000
Si       0.90916771      -1.95129765       1.16235056       0.00000000
Si      -2.96629564       1.57320253       1.63080079       0.00000000
Si       2.89167700      -0.81928926      -2.22677415       0.00000000
Si      -0.29026337       3.72929318       0.08511927       0.00000000
Si      -3.24275323       1.75215470      -0.70380034       0.00000000
Si       1.60923046       3.15485891      -1.24037368       0.00000000
Si      -1.37968222      -0.92442492      -3.40137856       0.00000000
