10
Lattice="16.28999089631971 0.0 0.0 0.0 16.28999089631971 0.0 0.0 0.0 34.61538196595647" Properties=species:S:1:pos:R:3:initial_magmoms:R:1 pbc="T T T"
Si      -1.64383434       1.52661735       0.75918498       0.00000000
Si       1.24057798      -0.86139891       1.82523550       0.00000000
Si      -1.14280281      -1.91840814      -0.86109272       0.00000000
Si       1.25255113       0.99088812      -1.81993934       0.00000000
Si       2.47549030      -2.59626762       0.74315805       0.00000000
Si       1.92234706      -0.95368176      -3.03026685       0.00000000
Si      -0.51606883      -1.84461444       3.30327852       0.00000000
Si      -2.23431426      -1.30051215      -2.87761293       0.00000000
Si      -3.16919736       2.22685929      -0.91941967       0.00000000
Si      -3.21629175       0.61312302       2.31459342       0.00000000
