10
Lattice="16.28999089631971 0.0 0.0 0.0 16.28999089631971 0.0 0.0 0.0 34.61538196595647" Properties=species:S:1:pos:R:3:initial_magmoms:R:1 pbc="T T T"
Si       0.66979593      -1.94456988      -1.21032751       0.00000000
Si       2.26903410       0.68072652       0.45387714       0.00000000
Si      -1.25255113      -0.99088812       1.81993934       0.00000000
Si      -0.90916771       1.95129765      -1.16235056       0.00000000
Si       2.08963233      -2.88686493       0.47011177       0.00000000
Si       1.14965046      -1.23140997      -3.41740549       0.00000000
Si       3.41705556      -1.15735563       1.30742371       0.00000000
Si      -2.39535395      -2.90929626       0.95884662       0.00000000
Si      -2.89638548       0.53572923       2.57912432       0.00000000
Si       3.40640190       1.22414463      -1.55776229       0.00000000
