10
Lattice="16.28999089631971 0.0 0.0 0.0 16.28999089631971 0.0 0.0 0.0 34.61538196595647" Properties=species:S:1:pos:R:3:initial_magmoms:R:1 pbc="T T T"
Si       0.45799335       2.23231644      -0.62027338       0.00000000
Si      -0.06173910      -0.19346004       2.43432810       0.00000000
Si      -1.41967350      -1.66920372      -1.16127748       0.00000000
Si       2.07853884      -0.94749156      -1.12908516       0.00000000
Si      -2.70085756       0.88088175       1.31316986       0.00000000
Si       1.57595976      -2.12138154       2.40386654       0.00000000
Si       2.46358557       2.75485077       0.65741570       0.00000000
Si       1.71626553      -3.26036205      -0.86541965       0.00000000
Si      -1.60867008       3.55140475      -0.68946956       0.00000000
Si       1.45746630       2.47019931      -2.77802442       0.00000000
