10
Lattice="16.28999089631971 0.0 0.0 0.0 16.28999089631971 0.0 0.0 0.0 34.61538196595647" Properties=species:S:1:pos:R:3:initial_magmoms:R:1 pbc="T T T"
Si       1.75876614       1.04874857       1.09372276       0.00000000
Si      -0.89063946      -1.84844489       1.09763776       0.00000000
Si       0.84554874      -0.64663385      -2.10462059       0.00000000
Si      -1.79768295       1.67082132      -0.15891412       0.00000000
Si      -2.28216384      -0.38024527       2.52260499       0.00000000
Si       0.45364392       2.34504813       2.55463808       0.00000000
Si       1.57745844       1.52101848      -2.88921328       0.00000000
Si      -1.16004348      -1.16916818      -3.38230967       0.00000000
Si      -1.03663044       3.48248109       1.14461432       0.00000000
Si       2.24054289       2.98431660      -0.79446227       0.00000000
