10
Lattice="16.28999089631971 0.0 0.0 0.0 16.28999089631971 0.0 0.0 0.0 34.61538196595647" Properties=species:S:1:pos:R:3:initial_magmoms:R:1 pbc="T T T"
Si      -1.22621346       1.48473576      -1.38354297       0.00000000
Si       1.50801417      -1.21733867      -1.39091606       0.00000000
Si      -0.84338217      -1.83146027       1.39545067       0.00000000
Si       0.53050014       1.65529206       1.76323931       0.00000000
Si       2.83669173      -2.42826022       0.11561544       0.00000000
Si      -2.56192830       0.13035258      -2.75393210       0.00000000
Si       2.87943669       1.62072468       1.80827395       0.00000000
Si       0.14968881      -2.58630533      -2.75465902       0.00000000
Si      -2.68825725      -2.71134737       0.11720775       0.00000000
Si      -2.56315005       2.86436844       0.11319236       0.00000000
