10
Lattice="16.28999089631971 0.0 0.0 0.0 16.28999089631971 0.0 0.0 0.0 34.61538196595647" Properties=species:S:1:pos:R:3:initial_magmoms:R:1 pbc="T T T"
Si      -0.53103771      -1.55377278       1.65375080       0.00000000
Si      -0.39271932       2.16950220       0.82689271       0.00000000
Si      -1.53225369      -0.05233977      -1.80297779       0.00000000
Si       2.31013377       0.29877489      -0.52276179       0.00000000
Si      -0.10536372       3.36307050      -1.23684290       0.00000000
Si       0.43401447       1.80387315       3.09174380       0.00000000
Si      -2.83053411      -1.22456817       1.91797016       0.00000000
Si       2.15404299       2.64117915      -1.31801602       0.00000000
Si      -1.34061813       2.07330975      -2.75507441       0.00000000
Si       0.09356976      -0.52123113       3.71765949       0.00000000
