10
Lattice="16.28999089631971 0.0 0.0 0.0 16.28999089631971 0.0 0.0 0.0 34.61538196595647" Properties=species:S:1:pos:R:3:initial_magmoms:R:1 pbc="T T T"
Si      -1.35444834      -1.35415512       1.36677527       0.00000000
Si       1.36225125       1.36593279       1.36635989       0.00000000
Si       1.21490820      -1.53925839      -1.33363103       0.00000000
Si      -1.39693266       1.28187639      -1.42980992       0.00000000
Si      -2.69866656       2.70068652       0.01429616       0.00000000
Si       2.68820838       2.71769328      -0.02070347       0.00000000
Si      -2.70967860      -2.72284092      -0.00281769       0.00000000
Si       2.71252935      -2.72306898       0.01940539       0.00000000
Si       0.00228060      -2.71094922       2.72778362       0.00000000
Si       2.71479366       0.00342090       2.72677978       0.00000000
