10
Lattice="16.28999089631971 0.0 0.0 0.0 16.28999089631971 0.0 0.0 0.0 34.61538196595647" Properties=species:S:1:pos:R:3:initial_magmoms:R:1 pbc="T T T"
Si       1.35772263       1.35681039      -1.35841219       0.00000000
Si      -1.35773892      -1.35840681      -1.35834296       0.00000000
Si      -1.35894438       1.35674523       1.36021219       0.00000000
Si       1.36166481      -1.36169739       1.35782373       0.00000000
Si       2.71492398      -2.71448415      -0.00124615       0.00000000
Si       2.71480995      -0.00071676      -2.71571669       0.00000000
Si      -0.00083079       2.71498914      -2.71571669       0.00000000
Si       2.71559187       2.71534752      -0.00169615       0.00000000
Si      -0.00040725      -2.71516833      -2.71592439       0.00000000
Si      -2.71580038      -0.00014661      -2.71582054       0.00000000
