10
Lattice="16.28999089631971 0.0 0.0 0.0 16.28999089631971 0.0 0.0 0.0 34.61538196595647" Properties=species:S:1:pos:R:3:initial_magmoms:R:1 pbc="T T T"
Si      -1.23525441      -1.28976075      -1.51823150       0.00000000
Si       2.25940671      -0.72189135      -0.08117312       0.00000000
Si      -0.28735560      -1.19356830       2.06373561       0.00000000
Si      -0.67049640       2.24362170      -0.64796570       0.00000000
Si      -2.44586205      -0.39050388       2.41345501       0.00000000
Si       3.06820521       1.05591780       1.28769293       0.00000000
Si       0.10536372      -3.36307050       1.23684290       0.00000000
Si       0.25011666       3.40710237       1.11267746       0.00000000
Si      -1.42688997      -3.41541027      -0.56613489       0.00000000
Si       2.91485115      -0.40197204      -2.34817036       0.00000000
