10
Lattice="16.28999089631971 0.0 0.0 0.0 16.28999089631971 0.0 0.0 0.0 34.61538196595647" Properties=species:S:1:pos:R:3:initial_magmoms:R:1 pbc="T T T"
Si      -1.35218403       1.34962650      -1.38208913       0.00000000
Si      -0.82372014      -1.88649603       1.22306597       0.00000000
Si       1.39256694      -1.35304740      -1.40299683       0.00000000
Si       1.24579404       1.45585359       1.49216610       0.00000000
Si       1.11847140      -3.36856023       1.26626600       0.00000000
Si      -2.68467345      -0.01834254      -2.75490133       0.00000000
Si       2.88653913      -2.54816325      -0.02208463       0.00000000
Si       0.02911023       2.69809641      -2.74939748       0.00000000
Si       0.02860524      -2.73600324      -2.75503979       0.00000000
Si       2.74312197      -0.01858689      -2.76154749       0.00000000
