10
Lattice="16.28999089631971 0.0 0.0 0.0 16.28999089631971 0.0 0.0 0.0 34.61538196595647" Properties=species:S:1:pos:R:3:initial_magmoms:R:1 pbc="T T T"
Si       0.73388079      -1.37793852       1.71837775       0.00000000
Si       1.99765899       1.08198180      -0.53172718       0.00000000
Si      -1.32587568       1.86891912       0.51736179       0.00000000
Si      -0.87513138      -1.71442476      -1.37395451       0.00000000
Si       1.28337507      -2.51748918      -1.72367391       0.00000000
Si      -1.33460712      -2.46705534       1.83728166       0.00000000
Si      -2.19256884       1.16862831       2.61034741       0.00000000
Si       2.11010886      -2.88311823       0.54117718       0.00000000
Si      -2.25175041      -0.61502895      -2.91260910       0.00000000
Si       2.20082787       3.05413065       0.74173882       0.00000000
