10
Lattice="16.28999089631971 0.0 0.0 0.0 16.28999089631971 0.0 0.0 0.0 34.61538196595647" Properties=species:S:1:pos:R:3:initial_magmoms:R:1 pbc="T T T"
Si      -1.96072956       1.04076810      -0.96736201       0.00000000
Si       1.30733766       1.36492281       1.53055458       0.00000000
Si      -0.20808846      -2.16323055       1.10533899       0.00000000
Si       1.00963791      -1.30399821      -1.88089706       0.00000000
Si       1.68819786       0.99914715      -2.13068180       0.00000000
Si      -0.42161778       2.54084904      -2.10094717       0.00000000
Si      -0.75408039      -2.71811682      -2.40452424       0.00000000
Si       3.40272036       0.34137324       1.46783148       0.00000000
Si       1.91554110      -3.15232677       0.85808118       0.00000000
Si      -3.36109941       1.62337995       0.85115810       0.00000000
