10
Lattice="16.28999089631971 0.0 0.0 0.0 16.28999089631971 0.0 0.0 0.0 34.61538196595647" Properties=species:S:1:pos:R:3:initial_magmoms:R:1 pbc="T T T"
Si       2.37193803       0.14840190      -0.23569627       0.00000000
Si      -0.48734793      -1.54031724       1.76237393       0.00000000
Si      -0.74603313      -0.91658943      -2.14293565       0.00000000
Si      -0.77325372       2.37107466      -0.08885774       0.00000000
Si       0.36321813       2.67978645      -2.09921640       0.00000000
Si       2.56357359       2.27405142      -1.18779288       0.00000000
Si      -0.35808678       0.93988413      -3.53520171       0.00000000
Si       2.92030830      -0.89994105      -2.21085107       0.00000000
Si       1.07365761      -1.02382650       3.48525168       0.00000000
Si      -2.81581447      -1.97772003      -1.73253545       0.00000000
