10
Lattice="16.28999089631971 0.0 0.0 0.0 16.28999089631971 0.0 0.0 0.0 34.61538196595647" Properties=species:S:1:pos:R:3:initial_magmoms:R:1 pbc="T T T"
Si      -1.35443205      -1.34528033       1.36277373       0.00000000
Si      -1.35329175       1.35738054      -1.36093912       0.00000000
Si       1.36262592      -1.35801911      -1.36104296       0.00000000
Si       1.38114765       1.37150397       1.37173912       0.00000000
Si      -2.70655092       2.71016730      -0.00186923       0.00000000
Si      -2.71275741      -2.71424699      -0.00096923       0.00000000
Si      -2.71090035      -0.00076563      -2.71810516       0.00000000
Si       2.71847520       2.71114470      -0.00335769       0.00000000
Si       2.71705797      -2.71489566      -0.00031154       0.00000000
Si       0.00376299       2.71371852      -2.71831285       0.00000000
