10
Lattice="16.28999089631971 0.0 0.0 0.0 16.28999089631971 0.0 0.0 0.0 34.61538196595647" Properties=species:S:1:pos:R:3:initial_magmoms:R:1 pbc="T T T"
Si      -1.35443205       1.35687656      -1.36073143       0.00000000
Si       1.35871632      -1.35782329      -1.36118143       0.00000000
Si       1.35959598       1.33778142       1.38302374       0.00000000
Si      -1.34500014      -1.35114439       1.40123145       0.00000000
Si      -2.71450044      -2.71414498       0.00609231       0.00000000
Si       2.71461447       2.71642692       0.00225000       0.00000000
Si       2.71586880      -2.71520383      -0.00034615       0.00000000
Si      -2.71407690      -0.00050210      -2.71748208       0.00000000
Si      -2.71705797       2.71489566       0.00031154       0.00000000
Si       0.00135207       2.71470018      -2.71744746       0.00000000
