10
Lattice="16.28999089631971 0.0 0.0 0.0 16.28999089631971 0.0 0.0 0.0 34.61538196595647" Properties=species:S:1:pos:R:3:initial_magmoms:R:1 pbc="T T T"
Si      -0.87043986      -1.79919955       1.32099294       0.00000000
Si       0.57837645       1.98366588       1.22631982       0.00000000
Si      -2.00964843       0.81570546      -1.05036974       0.00000000
Si       1.78650801      -0.54636660      -1.54581998       0.00000000
Si       0.43350948       3.29334930      -0.68701187       0.00000000
Si      -2.59162497      -0.77085909       2.50906275       0.00000000
Si      -3.76637832       0.27598518       0.54837719       0.00000000
Si       1.41172398      -2.91218678      -2.05435484       0.00000000
Si      -1.66920372       3.14080974      -1.67628542       0.00000000
Si       3.98806893      -0.37056492      -0.43913098       0.00000000
