10
Lattice="16.28999089631971 0.0 0.0 0.0 16.28999089631971 0.0 0.0 0.0 34.61538196595647" Properties=species:S:1:pos:R:3:initial_magmoms:R:1 pbc="T T T"
Si      -2.05877160       0.19025091      -1.11572362       0.00000000
Si       0.57166008       1.94338071       1.21901597       0.00000000
Si      -0.30375800      -1.91953541       1.38416605       0.00000000
Si       1.89949382      -0.57443427      -1.32549295       0.00000000
Si       3.46049936      -0.05794353       0.39738481       0.00000000
Si       1.03838813      -1.19773854       3.16100922       0.00000000
Si      -2.95248987      -1.97713848      -0.78891961       0.00000000
Si       0.29026337      -3.72929318      -0.08511927       0.00000000
Si       2.85636842       2.28561732       0.81844655       0.00000000
Si       0.75605637       1.10451087       3.50633246       0.00000000
