10
Lattice="16.28999089631971 0.0 0.0 0.0 16.28999089631971 0.0 0.0 0.0 34.61538196595647" Properties=species:S:1:pos:R:3:initial_magmoms:R:1 pbc="T T T"
Si       1.35637056      -1.35646830      -1.35765065       0.00000000
Si      -1.35705474      -1.35633798       1.35737373       0.00000000
Si      -1.35716877       1.35742941      -1.35709681       0.00000000
Si       1.35853713       1.35799956       1.35636988       0.00000000
Si      -2.71031391      -0.00355122       2.71644362       0.00000000
Si      -2.71397916      -0.00070047      -2.71353592       0.00000000
Si      -0.00146610       2.71366965      -2.71453977       0.00000000
Si       2.71464705      -2.71391400       0.00055385       0.00000000
Si      -2.71466334      -2.71448415       0.00020769       0.00000000
Si      -2.71425609       2.71495656       0.00020769       0.00000000
