10
Lattice="16.28999089631971 0.0 0.0 0.0 16.28999089631971 0.0 0.0 0.0 34.61538196595647" Properties=species:S:1:pos:R:3:initial_magmoms:R:1 pbc="T T T"
Si      -1.35702216       1.35376416       1.35830835       0.00000000
Si      -1.35708732      -1.35757602      -1.35609296       0.00000000
Si       1.35853713       1.35638685      -1.35626604       0.00000000
Si       1.35617508      -1.35584928       1.36360450       0.00000000
Si      -2.71319724       2.71433754      -0.00027692       0.00000000
Si      -2.69434971       0.01412343       2.73340516       0.00000000
Si      -2.71287144      -2.71539965       0.00062308       0.00000000
Si       0.00047241       2.71454931      -2.71388208       0.00000000
Si       2.71562445      -0.00061902      -2.71391669       0.00000000
Si      -2.71536381      -0.00013032      -2.71429746       0.00000000
