10
Lattice="16.28999089631971 0.0 0.0 0.0 16.28999089631971 0.0 0.0 0.0 34.61538196595647" Properties=species:S:1:pos:R:3:initial_magmoms:R:1 pbc="T T T"
Si       1.34214613       0.72179687       1.77684316       0.00000000
Si       0.30375800       1.91953541      -1.38416605       0.00000000
Si      -2.37227427      -0.23655523       0.16151546       0.00000000
Si       0.59402137      -1.80975777      -1.46928532       0.00000000
Si      -2.64873186      -0.05760307      -2.17308566       0.00000000
Si      -1.42315371      -2.11758990      -2.66303205       0.00000000
Si      -1.75501359       2.10978632      -2.49988967       0.00000000
Si       2.20325182       1.34510114      -2.70965900       0.00000000
Si       3.56279893       0.65403698       1.06338513       0.00000000
Si       1.05981437       3.02404628       2.12216641       0.00000000
