10
Lattice="16.28999089631971 0.0 0.0 0.0 16.28999089631971 0.0 0.0 0.0 34.61538196595647" Properties=species:S:1:pos:R:3:initial_magmoms:R:1 pbc="T T T"
Si      -1.72183671      -1.01221173       1.38204555       0.00000000
Si       1.01773404       1.90553904       1.16874199       0.00000000
Si       1.81260459      -1.67651793      -0.11616929       0.00000000
Si      -1.51573563      -0.76134573      -2.05376638       0.00000000
Si       0.11546352      -2.56064139      -1.89000091       0.00000000
Si      -0.22421556      -2.19602232       2.73508197       0.00000000
Si       2.46940110       0.56545848       2.72128428       0.00000000
Si      -2.90965464      -2.63945241      -0.03101540       0.00000000
Si       1.02017754      -3.58019991       1.32959283       0.00000000
Si       3.73218561      -0.72436743       1.28365127       0.00000000
