10
Lattice="16.28999089631971 0.0 0.0 0.0 16.28999089631971 0.0 0.0 0.0 34.61538196595647" Properties=species:S:1:pos:R:3:initial_magmoms:R:1 pbc="T T T"
Si       1.26278451      -1.28982591      -1.43763300       0.00000000
Si       1.38119652       1.32199866       1.36199835       0.00000000
Si      -1.33395552      -1.38720753       1.36282912       0.00000000
Si      -1.45166706       1.34008056      -1.55254229       0.00000000
Si      -0.65679651      -2.24197641      -2.83745356       0.00000000
Si      -2.46940110      -0.56545848      -2.72128428       0.00000000
Si       2.43608805       0.33168069      -2.85960742       0.00000000
Si      -2.71793763       2.67928146      -0.02631117       0.00000000
Si       0.02601513       2.68118739       2.72148362       0.00000000
Si      -2.69135235      -0.03499092       2.72117208       0.00000000
