10
Lattice="16.28999089631971 0.0 0.0 0.0 16.28999089631971 0.0 0.0 0.0 34.61538196595647" Properties=species:S:1:pos:R:3:initial_magmoms:R:1 pbc="T T T"
Si      -1.35055503      -1.33446051       1.35855066       0.00000000
Si      -1.35316143       1.35632169      -1.35477758       0.00000000
Si       1.35884664      -1.35687555      -1.35536604       0.00000000
Si       1.35158130       1.35529542       1.38060067       0.00000000
Si       0.14341716      -2.52957636       2.73946286       0.00000000
Si      -2.71259451      -0.00013032      -2.71228977       0.00000000
Si       0.00162900      -2.71472850      -2.71211669       0.00000000
Si       0.00211770       2.71511946      -2.71190900       0.00000000
Si       2.71741635      -0.00013032      -2.71201285       0.00000000
Si      -2.71401174       2.71668330       0.01215001       0.00000000
