10
Lattice="16.28999089631971 0.0 0.0 0.0 16.28999089631971 0.0 0.0 0.0 34.61538196595647" Properties=species:S:1:pos:R:3:initial_magmoms:R:1 pbc="T T T"
Si       0.94589514      -0.13949127      -2.14162026       0.00000000
Si      -2.26048185       0.18283896       0.61857722       0.00000000
Si       0.55760670      -2.16834561       0.79359269       0.00000000
Si       0.94622094       1.62331479       1.45488532       0.00000000
Si       0.11420919      -1.59334119       3.02728992       0.00000000
Si      -3.18109491      -0.98064171      -1.14206594       0.00000000
Si      -2.08367019      -0.81836073       2.76158210       0.00000000
Si       2.84091084      -2.07142011       0.55945412       0.00000000
Si       2.96619723      -1.22811939      -1.65063541       0.00000000
Si       1.57811004       0.29328516       3.24477849       0.00000000
