10
Lattice="16.28999089631971 0.0 0.0 0.0 16.28999089631971 0.0 0.0 0.0 34.61538196595647" Properties=species:S:1:pos:R:3:initial_magmoms:R:1 pbc="T T T"
Si       0.63188910      -1.33002963       1.78989317       0.00000000
Si       1.64970459       1.44959823      -0.82249655       0.00000000
Si      -0.94622094      -1.62331479      -1.45488532       0.00000000
Si      -1.86155604       1.04091471       1.05431589       0.00000000
Si       0.37986651       3.46903695      -0.41493482       0.00000000
Si      -3.20670279      -1.44047583      -0.83630810       0.00000000
Si      -0.83201175      -3.21665598       1.57240460       0.00000000
Si      -3.54419901       0.83439009      -0.53937718       0.00000000
Si       2.52294633      -2.48241681       1.02122357       0.00000000
Si       3.57249474       1.28194155       0.63771954       0.00000000
