10
Lattice="16.28999089631971 0.0 0.0 0.0 16.28999089631971 0.0 0.0 0.0 34.61538196595647" Properties=species:S:1:pos:R:3:initial_magmoms:R:1 pbc="T T T"
Si       0.35754921      -0.89873559      -2.16429335       0.00000000
Si      -0.67855995      -2.30314536       0.24978474       0.00000000
Si       2.07031239      -0.66857418       1.22216597       0.00000000
Si      -2.10981564       1.54170189       0.02973463       0.00000000
Si      -1.68819786      -0.99914715       2.13068180       0.00000000
Si      -0.38086020       0.36577566       3.66123638       0.00000000
Si       3.49874991       1.16072766       0.51057717       0.00000000
Si      -3.64892742       0.04162095       1.16331979       0.00000000
Si       0.24636996       2.53972503       2.92967449       0.00000000
Si      -1.72574631       3.16548895       1.71817006       0.00000000
