10
Lattice="16.28999089631971 0.0 0.0 0.0 16.28999089631971 0.0 0.0 0.0 34.61538196595647" Properties=species:S:1:pos:R:3:initial_magmoms:R:1 pbc="T T T"
Si       2.09538270      -1.02354957      -0.06272311       0.00000000
Si      -1.23422814       0.59800590       1.88754322       0.00000000
Si       0.62723016       2.17394937      -0.73156189       0.00000000
Si      -1.30733766      -1.36492281      -1.53055458       0.00000000
Si       2.45117259      -1.03434984      -2.43907041       0.00000000
Si      -1.34488611       2.79971329      -1.94306632       0.00000000
Si       0.38086020      -0.36577566      -3.66123638       0.00000000
Si       1.77901461      -3.15618750       0.79234654       0.00000000
Si      -3.33127242       1.36521603       0.99761587       0.00000000
Si       0.77102199       3.49416983       1.22676982       0.00000000
