10
Lattice="16.28999089631971 0.0 0.0 0.0 16.28999089631971 0.0 0.0 0.0 34.61538196595647" Properties=species:S:1:pos:R:3:initial_magmoms:R:1 pbc="T T T"
Si       1.35641596       1.35743918      -1.35765065       0.00000000
Si      -1.35865116      -1.35757648      -1.35754681       0.00000000
Si       1.35758571      -1.35915356       1.36104296       0.00000000
Si      -1.36050822       1.35976865       1.36273912       0.00000000
Si       2.71314578       2.71379345      -0.00107308       0.00000000
Si       2.71380879      -0.00032580      -2.71495516       0.00000000
Si      -0.00149868      -2.71479107      -2.71460900       0.00000000
Si      -0.00105885       2.71499891      -2.71478208       0.00000000
Si       2.71460537      -2.71531235      -0.00086539       0.00000000
Si      -2.71549413      -0.00072002      -2.71471285       0.00000000
