10
Lattice="16.28999089631971 0.0 0.0 0.0 16.28999089631971 0.0 0.0 0.0 34.61538196595647" Properties=species:S:1:pos:R:3:initial_magmoms:R:1 pbc="T T T"
Si       1.35695700       1.35601218      -1.35761604       0.00000000
Si      -1.35777150       1.35760860       1.35706219       0.00000000
Si       1.35806472      -1.35816246       1.35761604       0.00000000
Si      -1.35795069      -1.35835794      -1.35841219       0.00000000
Si      -2.71366965      -0.00021177       2.71360515       0.00000000
Si      -0.00047241      -2.71454931       2.71388208       0.00000000
Si      -0.00112401       2.71244790      -2.71647823       0.00000000
Si      -0.00055386       2.71546155       2.71381285       0.00000000
Si      -2.71472850       2.71458189      -0.00034615       0.00000000
Si       2.71521720       2.71484253      -0.00031154       0.00000000
