10
Lattice="16.28999089631971 0.0 0.0 0.0 16.28999089631971 0.0 0.0 0.0 34.61538196595647" Properties=species:S:1:pos:R:3:initial_magmoms:R:1 pbc="T T T"
Si       1.35616437       1.35604476      -1.35837758       0.00000000
Si       1.35368271      -1.36052451       1.35938142       0.00000000
Si      -1.35806472       1.35594702       1.36066219       0.00000000
Si      -1.35868374      -1.35920502      -1.35796219       0.00000000
Si       2.71288026       2.71494027      -0.00159231       0.00000000
Si       2.71325655      -0.00125433      -2.71554362       0.00000000
Si      -0.00153126       2.71379997      -2.71588977       0.00000000
Si       2.71260821      -2.71741635      -0.00190385       0.00000000
Si      -2.71730232       2.71441899      -0.00176539       0.00000000
Si      -0.00159642      -2.71621089      -2.71561285       0.00000000
