10
Lattice="16.28999089631971 0.0 0.0 0.0 16.28999089631971 0.0 0.0 0.0 34.61538196595647" Properties=species:S:1:pos:R:3:initial_magmoms:R:1 pbc="T T T"
Si       2.32210692      -0.27624582       0.26591551       0.00000000
Si      -0.62058384      -0.43805439       2.24231647       0.00000000
Si      -1.10815983      -0.73249614      -1.99332788       0.00000000
Si      -0.02971296       2.37177513      -0.45360022       0.00000000
Si       0.52632990       1.44985887       2.99419760       0.00000000
Si       2.24042886       2.67656103       0.10751544       0.00000000
Si      -2.86845723       0.87814503      -1.93628170       0.00000000
Si      -0.27880335       3.18777381       1.73198160       0.00000000
Si       2.66634720       0.78218064       2.36568576       0.00000000
Si       3.17094624       1.23904998      -1.48500072       0.00000000
