10
Lattice="16.28999089631971 0.0 0.0 0.0 16.28999089631971 0.0 0.0 0.0 34.61538196595647" Properties=species:S:1:pos:R:3:initial_magmoms:R:1 pbc="T T T"
Si      -0.69186888       1.27539297       1.79882394       0.00000000
Si       1.57335336       1.31336496      -1.26398138       0.00000000
Si      -2.35126602      -0.19810269      -0.50825794       0.00000000
Si       0.92051532      -2.34794286       0.31839246       0.00000000
Si      -1.89051966      -2.16810126      -1.67289311       0.00000000
Si      -1.84145418       3.00379455       0.40586558       0.00000000
Si       3.16770031      -0.41394519      -1.58223538       0.00000000
Si       1.93150530      -2.49862536      -1.88235091       0.00000000
Si      -1.86517242      -0.34611363       3.22079836       0.00000000
Si       0.29703186       2.24490861      -3.10039765       0.00000000
