10
Lattice="16.28999089631971 0.0 0.0 0.0 16.28999089631971 0.0 0.0 0.0 34.61538196595647" Properties=species:S:1:pos:R:3:initial_magmoms:R:1 pbc="T T T"
Si       1.01098998      -0.15068250      -2.20074337       0.00000000
Si       1.84999570      -0.07283259       1.64237494       0.00000000
Si      -1.94046480      -1.57172436      -0.42673867       0.00000000
Si      -0.92051532       2.34794286      -0.31839246       0.00000000
Si       0.02448387      -0.92377332       2.94999169       0.00000000
Si      -1.13282289      -2.52729576       1.59227384       0.00000000
Si      -2.81103498       0.17984160      -1.99128558       0.00000000
Si       2.24718499       1.93399767      -1.90062784       0.00000000
Si      -1.01499732      -0.32509953      -3.53201709       0.00000000
Si      -3.27178134       2.14984017      -0.82665040       0.00000000
