10
Lattice="16.28999089631971 0.0 0.0 0.0 16.28999089631971 0.0 0.0 0.0 34.61538196595647" Properties=species:S:1:pos:R:3:initial_magmoms:R:1 pbc="T T T"
Si      -1.40370604      -1.42752528       1.28575447       0.00000000
Si       1.67172867       0.94486887       1.42508146       0.00000000
Si      -1.35816898       1.34177472      -1.48167764       0.00000000
Si       1.33693659      -1.37963268      -1.49673534       0.00000000
Si       3.09365019      -1.20907638       1.65004695       0.00000000
Si       2.71740006       2.57691510      -0.00425769       0.00000000
Si      -1.04827779      -0.44248527       3.63794022       0.00000000
Si       2.56315005      -2.86436844      -0.11319236       0.00000000
Si      -2.73039038       2.77698888      -0.05957311       0.00000000
Si      -0.00156384       2.69218314      -2.86636292       0.00000000
