10
Lattice="16.28999089631971 0.0 0.0 0.0 16.28999089631971 0.0 0.0 0.0 34.61538196595647" Properties=species:S:1:pos:R:3:initial_magmoms:R:1 pbc="T T T"
Si      -1.83712104      -1.42314327       0.19322317       0.00000000
Si       1.09151145      -0.61789599       2.01652020       0.00000000
Si       1.04544333      -1.49555232      -1.54973152       0.00000000
Si      -0.78757263       2.34121509      -0.19028086       0.00000000
Si       3.15318429      -1.77741819      -0.56367719       0.00000000
Si       2.35430966      -2.63883339       1.47049686       0.00000000
Si      -0.50160168      -1.66698828       3.41280165       0.00000000
Si      -3.72817827      -0.27075609       0.96189277       0.00000000
Si       2.23431426       1.30051215       2.87761293       0.00000000
Si       1.18068291      -0.57761082      -3.67068639       0.00000000
