10
Lattice="16.28999089631971 0.0 0.0 0.0 16.28999089631971 0.0 0.0 0.0 34.61538196595647" Properties=species:S:1:pos:R:3:initial_magmoms:R:1 pbc="T T T"
Si       1.41398829       1.13463108      -1.38503421       0.00000000
Si       1.43451369      -1.27910709       1.28441139       0.00000000
Si      -1.31136129       1.45868805       1.28711831       0.00000000
Si      -1.26879552      -1.40993208      -1.44385827       0.00000000
Si       2.07583374      -0.69010956      -2.70687042       0.00000000
Si      -0.39105774       1.78035106      -2.98760133       0.00000000
Si      -2.24601633       0.15543918      -2.92906668       0.00000000
Si       0.05536971      -2.60929962       2.64901282       0.00000000
Si      -2.66113440       0.10689498       2.65250897       0.00000000
Si       0.36895221      -2.31883263      -2.96015131       0.00000000
