10
Lattice="16.28999089631971 0.0 0.0 0.0 16.28999089631971 0.0 0.0 0.0 34.61538196595647" Properties=species:S:1:pos:R:3:initial_magmoms:R:1 pbc="T T T"
Si      -1.35715248       1.35738054      -1.36083527       0.00000000
Si       1.35909099      -1.35933534      -1.36017758       0.00000000
Si      -1.36477620      -1.36032903       1.37488912       0.00000000
Si       1.36679616       1.35883035       1.37796990       0.00000000
Si       2.71683960       2.71270854       0.00090000       0.00000000
Si      -2.71586880       2.71520383       0.00034615       0.00000000
Si      -2.71423980      -0.00050499      -2.71762054       0.00000000
Si       0.00060273       2.71428563      -2.71768977       0.00000000
Si      -2.71635750      -2.71562445      -0.00571154       0.00000000
Si       2.71657699      -2.71583622      -0.00370385       0.00000000
