10
Lattice="16.28999089631971 0.0 0.0 0.0 16.28999089631971 0.0 0.0 0.0 34.61538196595647" Properties=species:S:1:pos:R:3:initial_magmoms:R:1 pbc="T T T"
Si       1.35004344       1.35387819      -1.37706989       0.00000000
Si      -1.36679616      -1.35883035      -1.37796990       0.00000000
Si      -1.33915203       1.28047545       1.54381228       0.00000000
Si       1.29598353      -1.43884683       1.44283916       0.00000000
Si      -2.09917827      -0.56985678       3.04033993       0.00000000
Si       2.70438502       2.70444692       0.00415385       0.00000000
Si      -2.72306898       2.69415490       0.00540000       0.00000000
Si       2.70002907      -2.72608263      -0.01917693       0.00000000
Si      -0.34005375      -2.39868621       2.98903990       0.00000000
Si       2.70706310      -0.00228060      -2.73897824       0.00000000
