10
Lattice="16.28999089631971 0.0 0.0 0.0 16.28999089631971 0.0 0.0 0.0 34.61538196595647" Properties=species:S:1:pos:R:3:initial_magmoms:R:1 pbc="T T T"
Si      -0.97764435      -1.59527970      -1.55492383       0.00000000
Si       1.63603728       0.95983938      -1.54620075       0.00000000
Si      -1.75912452       1.82882943       0.05130002       0.00000000
Si       0.81186102      -0.36634581       3.10967458       0.00000000
Si      -1.81561824      -3.24302949      -0.00055385       0.00000000
Si       3.20762873       2.00484288      -0.10575005       0.00000000
Si      -2.09922714       1.85813514       2.55586277       0.00000000
Si      -2.39151861      -0.32047317      -2.99212067       0.00000000
Si       0.34005375       2.39868621      -2.98903990       0.00000000
Si       2.77693742      -2.73406473      -0.18744240       0.00000000
