10
Lattice="16.28999089631971 0.0 0.0 0.0 16.28999089631971 0.0 0.0 0.0 34.61538196595647" Properties=species:S:1:pos:R:3:initial_magmoms:R:1 pbc="T T T"
Si       1.34809524       1.59365070      -1.10814284       0.00000000
Si      -1.92279015       0.16765668      -1.46021609       0.00000000
Si      -0.14731047       1.18615635       2.14847411       0.00000000
Si       0.78757263      -2.34121509       0.19028086       0.00000000
Si       0.12251709       3.65363753      -0.61819645       0.00000000
Si      -3.57249474      -1.28194155      -0.63771954       0.00000000
Si       3.36527032       1.90148283       0.08560389       0.00000000
Si       0.39897468       3.47468536       1.71640467       0.00000000
Si      -1.04954841      -3.76435836       0.38350403       0.00000000
Si      -2.36402109       1.06202655       2.99745145       0.00000000
