10
Lattice="16.28999089631971 0.0 0.0 0.0 16.28999089631971 0.0 0.0 0.0 34.61538196595647" Properties=species:S:1:pos:R:3:initial_magmoms:R:1 pbc="T T T"
Si      -1.48015827      -1.20889719       1.33356322       0.00000000
Si      -0.97722081       1.56537126      -1.48520841       0.00000000
Si       1.26879552       1.40993208       1.44385827       0.00000000
Si       1.63774773      -0.90890055      -1.51629304       0.00000000
Si       0.16894359      -0.35574102      -3.24810157       0.00000000
Si       3.34462926       0.71982252      -1.26301215       0.00000000
Si       0.87773778       3.19028314      -1.54374305       0.00000000
Si       2.68278381       2.54456316       0.05882407       0.00000000
Si      -0.02968038      -2.55513537       2.71228773       0.00000000
Si      -2.66807394       2.64585438      -0.16103085       0.00000000
