10
Lattice="16.28999089631971 0.0 0.0 0.0 16.28999089631971 0.0 0.0 0.0 34.61538196595647" Properties=species:S:1:pos:R:3:initial_magmoms:R:1 pbc="T T T"
Si       2.31000345       0.13175352      -0.27221552       0.00000000
Si      -1.02666096       1.49841936       1.45997378       0.00000000
Si      -0.22304268      -1.83097971       1.46412763       0.00000000
Si      -0.53237349       0.03451851      -2.37361268       0.00000000
Si       2.87883396      -2.10810519       0.21904626       0.00000000
Si      -2.63023064       1.37899737      -2.07920870       0.00000000
Si      -3.20590132       0.51406353       1.68113158       0.00000000
Si      -0.94434759      -3.57088203       0.02814232       0.00000000
Si       1.97731278      -2.23671474       2.37555115       0.00000000
Si       0.67636080       1.92982743      -3.24273618       0.00000000
