10
Lattice="16.28999089631971 0.0 0.0 0.0 16.28999089631971 0.0 0.0 0.0 34.61538196595647" Properties=species:S:1:pos:R:3:initial_magmoms:R:1 pbc="T T T"
Si      -1.22385141      -0.14581179      -2.00828174       0.00000000
Si       2.34488034      -0.34756344      -0.22243857       0.00000000
Si      -0.80710434      -1.88229321       1.30032755       0.00000000
Si      -0.82121148       2.25710982       0.84278118       0.00000000
Si      -2.30454304      -0.58029867       2.63883589       0.00000000
Si      -1.58348574       2.14672878      -2.46015119       0.00000000
Si      -1.30106601       1.54394991       3.04985916       0.00000000
Si       3.26549340       0.81591723       1.53820459       0.00000000
Si      -2.86721593       2.51359587      -0.47156561       0.00000000
Si      -0.19719045      -1.64423115      -3.46825552       0.00000000
