10
Lattice="16.28999089631971 0.0 0.0 0.0 16.28999089631971 0.0 0.0 0.0 34.61538196595647" Properties=species:S:1:pos:R:3:initial_magmoms:R:1 pbc="T T T"
Si       0.08434962      -1.55747061      -1.76967778       0.00000000
Si       1.66460994       1.10514618       1.27922050       0.00000000
Si      -1.09326262      -1.58662971       1.39523748       0.00000000
Si      -1.69957480       1.81745901      -0.03094617       0.00000000
Si      -2.39775410      -0.16685847       2.72214966       0.00000000
Si       0.36287604       2.52395631       2.72332658       0.00000000
Si       2.57481369       2.81680164      -0.18900009       0.00000000
Si      -2.17746638       2.28576393      -2.27610110       0.00000000
Si       0.35186400      -2.89957113       2.70621273       0.00000000
Si      -1.92383434      -3.50280612       0.01697415       0.00000000
