10
Lattice="16.28999089631971 0.0 0.0 0.0 16.28999089631971 0.0 0.0 0.0 34.61538196595647" Properties=species:S:1:pos:R:3:initial_magmoms:R:1 pbc="T T T"
Si       1.35680387      -1.35689184       1.35702758       0.00000000
Si       1.35581018       1.35835794      -1.35768527       0.00000000
Si      -1.35788750       1.35765747       1.35699296       0.00000000
Si      -1.35916429      -1.35793440      -1.35726989       0.00000000
Si      -0.00066626      -2.70956457      -2.71720516       0.00000000
Si       2.71218074      -0.00021177       2.71481669       0.00000000
Si      -0.00094971      -2.71334385       2.71419362       0.00000000
Si       2.71439618      -2.71440270       0.00034615       0.00000000
Si       0.00023783       2.71518462       2.71408977       0.00000000
Si      -2.71453043      -0.00070047       2.71492054       0.00000000
