10
Lattice="16.28999089631971 0.0 0.0 0.0 16.28999089631971 0.0 0.0 0.0 34.61538196595647" Properties=species:S:1:pos:R:3:initial_magmoms:R:1 pbc="T T T"
Si       1.34161182       1.36604682       1.36066219       0.00000000
Si       1.35435060      -1.35892809      -1.35938142       0.00000000
Si      -1.35759231       1.35646830      -1.36010835       0.00000000
Si      -1.36462633      -1.36733373       1.35969296       0.00000000
Si      -2.71461197       2.71262709       0.00180000       0.00000000
Si       2.71285515       2.71577106       0.00058846       0.00000000
Si       2.71438641      -2.71546155       0.00183462       0.00000000
Si       2.71397916      -0.00084708      -2.71654746       0.00000000
Si      -2.71487457      -2.71591767      -0.00280385       0.00000000
Si      -0.00053757       2.71402086      -2.71699746       0.00000000
