10
Lattice="16.28999089631971 0.0 0.0 0.0 16.28999089631971 0.0 0.0 0.0 34.61538196595647" Properties=species:S:1:pos:R:3:initial_magmoms:R:1 pbc="T T T"
Si      -0.86096138       2.28938098      -0.56191181       0.00000000
Si      -2.16707729      -0.99131166       1.05428128       0.00000000
Si       1.66668366       0.21295917       2.00128943       0.00000000
Si       1.01056155      -0.70276689      -2.74687056       0.00000000
Si      -1.38520616      -3.07395558       0.46855407       0.00000000
Si       1.04355369      -3.33376479       0.35293863       0.00000000
Si      -1.68420911       2.71087496       1.60615462       0.00000000
Si       1.19458317       3.73680287      -0.91363890       0.00000000
Si       2.96225994       2.17178999       1.70650467       0.00000000
Si       0.70783797       0.82806957       4.16205201       0.00000000
