10
Lattice="16.290000149 0.0 0.0 0.0 16.290000149 0.0 0.0 0.0 29.1751946751" Properties=species:S:1:pos:R:3:initial_magmoms:R:1 pbc="T T T"
Si      -1.34314309       1.35700588      -1.37015467       0.00000000
Si       1.32753239      -1.35048988      -1.39466183       0.00000000
Si       1.34805616       1.37899738       1.35174512       0.00000000
Si      -1.34447887      -1.37134108       1.36341520       0.00000000
Si       2.66694995      -2.70915734      -0.03165509       0.00000000
Si      -2.68597667       2.72225450      -0.01730089       0.00000000
Si      -2.70943427      -2.71155197      -0.00945276       0.00000000
Si       2.71943633       0.03686427       2.70804157       0.00000000
Si      -2.72715779      -0.02735091       2.70042684       0.00000000
Si       2.70857090       2.72885195      -0.00189639       0.00000000
