10
Lattice="16.290000149 0.0 0.0 0.0 16.290000149 0.0 0.0 0.0 29.1751946751" Properties=species:S:1:pos:R:3:initial_magmoms:R:1 pbc="T T T"
Si      -1.86837505      -0.84349621      -1.13132652       0.00000000
Si       1.28048198       1.41738966      -1.35816366       0.00000000
Si      -0.96770094       0.84447035       1.96445338       0.00000000
Si       1.81456592      -1.16706774       0.93465654       0.00000000
H       -2.72226428       0.41706962      -1.13199755       0.00000000
H        2.57341929       1.48013874      -0.55642931       0.00000000
Si       0.46891906      -2.57524051       2.27006355       0.00000000
Si       1.89746573      -0.09113115      -3.11701945       0.00000000
Si      -0.71008941      -0.97721430       3.54303564       0.00000000
Si       0.34288333       2.83215988       2.45547191       0.00000000
