10
Lattice="16.290000149 0.0 0.0 0.0 16.290000149 0.0 0.0 0.0 29.1751946751" Properties=species:S:1:pos:R:3:initial_magmoms:R:1 pbc="T T T"
Si       1.34826793       1.32726034      -1.38008882       0.00000000
Si      -1.33155113      -1.35974260      -1.37979415       0.00000000
Si      -1.35303764       1.38989539       1.33076815       0.00000000
Si       1.36998250      -1.34695495       1.36417375       0.00000000
Si      -2.62825143      -2.67864617       0.08370363       0.00000000
Si       2.70941147       2.69827562      -0.01779687       0.00000000
Si      -2.69521962       0.03564252       2.71346816       0.00000000
Si      -0.03771950       2.66551643      -2.75139883       0.00000000
Si       0.01059176       2.72132597       2.70926693       0.00000000
Si       2.72970881       0.00851967       2.71740681       0.00000000
