10
Lattice="16.290000149 0.0 0.0 0.0 16.290000149 0.0 0.0 0.0 29.1751946751" Properties=species:S:1:pos:R:3:initial_magmoms:R:1 pbc="T T T"
Si      -1.34570062      -1.35786925      -1.36341520       0.00000000
Si      -1.36935370       1.36366849       1.33715752       0.00000000
Si       1.34688979      -1.35878149       1.36852086       0.00000000
Si       1.35234694       1.37420812      -1.34766059       0.00000000
Si      -0.00412137       2.71989245       2.68362193       0.00000000
Si      -2.70816365      -2.70184313       0.00811070       0.00000000
Si      -2.70039332       0.00944820      -2.71761103       0.00000000
Si       2.77029372       0.03986163      -2.64858252       0.00000000
Si       0.03236823      -2.70707222      -2.71472269       0.00000000
Si       2.71761185      -2.70578531       0.03005045       0.00000000
