10
Lattice="16.290000149 0.0 0.0 0.0 16.290000149 0.0 0.0 0.0 29.1751946751" Properties=species:S:1:pos:R:3:initial_magmoms:R:1 pbc="T T T"
Si       1.43464728      -1.21498966       1.37893640       0.00000000
Si      -1.43628606       1.24520761       1.36913354       0.00000000
Si      -1.35839623      -1.41358105      -1.31002459       0.00000000
Si       1.36756506       1.42602661      -1.30144708       0.00000000
H       -1.16880262      -1.41771871       3.04460662       0.00000000
Si      -0.05028234      -2.41000778       2.76662536       0.00000000
Si      -0.01405013       2.68302818       2.53479926       0.00000000
Si       2.57634823      -2.64386702      -0.08224487       0.00000000
Si       2.56637875       0.02305035      -2.77584472       0.00000000
Si      -2.72663326       2.65945655       0.01096987       0.00000000
