10
Lattice="16.290000149 0.0 0.0 0.0 16.290000149 0.0 0.0 0.0 29.1751946751" Properties=species:S:1:pos:R:3:initial_magmoms:R:1 pbc="T T T"
Si       1.43998714      -1.18801342      -1.36834639       0.00000000
Si      -1.35115940      -1.45919305       1.22803879       0.00000000
Si      -1.35359639       1.24123285      -1.45467579       0.00000000
Si       1.42506550       1.36663327       1.27176074       0.00000000
Si      -2.70858719       0.00182448       2.51671589       0.00000000
Si       0.08187354      -2.53185698      -2.71075545       0.00000000
Si       0.09128916       2.68123628       2.68894874       0.00000000
Si      -2.53260486       2.83925906      -0.18170370       0.00000000
Si       2.71578737      -2.67903713      -0.02615119       0.00000000
Si       2.75063169      -0.02738349       2.64396934       0.00000000
