10
Lattice="16.290000149 0.0 0.0 0.0 16.290000149 0.0 0.0 0.0 29.1751946751" Properties=species:S:1:pos:R:3:initial_magmoms:R:1 pbc="T T T"
Si       1.21411000      -1.40566411       1.45701710       0.00000000
Si      -1.48502899      -1.25206570      -1.37126333       0.00000000
Si      -1.47422872       1.30365320       1.34929440       0.00000000
Si       1.58633650       1.49677245      -0.97378047       0.00000000
H        3.00576567      -0.63009721      -2.05790153       0.00000000
Si       2.54844020      -2.78182704       0.13160930       0.00000000
H        1.19330767      -1.10332171      -3.40935490       0.00000000
Si       0.85434535       3.67372083      -0.50910715       0.00000000
Si      -2.79956685      -2.61089606       0.11830541       0.00000000
Si      -0.19261296       2.58651808       2.86816963       0.00000000
