10
Lattice="16.290000149 0.0 0.0 0.0 16.290000149 0.0 0.0 0.0 29.1751946751" Properties=species:S:1:pos:R:3:initial_magmoms:R:1 pbc="T T T"
Si       1.40533831       1.41547069      -1.18369600       0.00000000
Si       1.70114843      -1.58820985       0.02360273       0.00000000
Si      -0.95400757       1.24639678       1.76241516       0.00000000
Si      -1.60381567      -0.81482581      -1.55509623       0.00000000
Si       0.54219637      -3.30058209      -1.00412268       0.00000000
Si      -0.16553898       2.68613957      -2.31405974       0.00000000
Si      -2.07611165       1.20195766      -2.63323637       0.00000000
Si      -2.40479498       2.65095317       0.53527730       0.00000000
Si      -0.32646789      -2.30858624      -2.89587147       0.00000000
Si       2.37167741      -2.06024519       2.13736601       0.00000000
