10
Lattice="16.290000149 0.0 0.0 0.0 16.290000149 0.0 0.0 0.0 29.1751946751" Properties=species:S:1:pos:R:3:initial_magmoms:R:1 pbc="T T T"
Si       1.35466012       1.39905037      -1.31767141       0.00000000
Si      -1.35071794       1.37002159       1.35921397       0.00000000
Si       1.37626066      -1.34659657       1.35970995       0.00000000
Si      -1.36114354      -1.37101528      -1.36229195       0.00000000
Si       2.73406476       0.04460202      -2.64537325       0.00000000
Si      -2.70941147      -2.69827562       0.01779687       0.00000000
Si       2.69622308       2.72440478       0.08209900       0.00000000
Si       0.02029734      -2.68975595       2.73520368       0.00000000
Si      -2.69881971       0.02305035       2.72706380       0.00000000
Si      -2.71503152       2.71753040      -0.01353729       0.00000000
