10
Lattice="16.290000149 0.0 0.0 0.0 16.290000149 0.0 0.0 0.0 29.1751946751" Properties=species:S:1:pos:R:3:initial_magmoms:R:1 pbc="T T T"
Si       1.43363404      -1.22741893      -1.28297919       0.00000000
Si      -1.22329756       1.53064099      -1.24321340       0.00000000
Si       1.48366063       1.01605618       1.47121754       0.00000000
Si      -1.12484080      -1.44032923       1.54713140       0.00000000
H        2.08212266      -2.06382899      -0.20177565       0.00000000
Si      -1.99839206       0.33829443       2.83515789       0.00000000
Si      -0.12719232       1.80439445       2.99638002       0.00000000
Si       2.46368333      -0.84186721       2.36826725       0.00000000
Si      -0.00526167      -2.56003868      -2.49232018       0.00000000
Si       0.69535495      -2.32497398       2.69427088       0.00000000
