10
Lattice="16.290000149 0.0 0.0 0.0 16.290000149 0.0 0.0 0.0 29.1751946751" Properties=species:S:1:pos:R:3:initial_magmoms:R:1 pbc="T T T"
Si       1.21949482      -1.28447954      -1.60889529       0.00000000
Si      -1.28358587       1.34881201      -1.50508994       0.00000000
Si       1.31986729       1.70942375       1.12330335       0.00000000
Si      -1.44026310      -1.42539782       1.35407914       0.00000000
H        2.84174263       0.23421762       0.49405275       0.00000000
H        0.20134701       2.70171281       1.40128460       0.00000000
H       -1.02454229       0.86623705       3.31059687       0.00000000
Si      -2.62646833      -2.56917998      -0.34225421       0.00000000
Si       3.45025559      -1.07222084       0.93722395       0.00000000
Si       2.60399008      -2.73564489      -0.45685437       0.00000000
