10
Lattice="16.290000149 0.0 0.0 0.0 16.290000149 0.0 0.0 0.0 29.1751946751" Properties=species:S:1:pos:R:3:initial_magmoms:R:1 pbc="T T T"
Si       1.18530928      -0.51352596       0.79890436       0.00000000
H       -0.80863561       0.74189548      -1.65458364       0.00000000
H        0.62923384       1.65118700      -1.10495215       0.00000000
H       -0.57573748       0.11541465       2.33138981       0.00000000
Si      -1.88651234       0.57678004       1.72326205       0.00000000
Si      -1.65293003      -0.19293876      -2.46372849       0.00000000
Si       2.51592536      -1.58583151      -0.82408255       0.00000000
Si      -1.61337790       2.61224813       0.53839904       0.00000000
Si       0.49143672      -2.37402317       2.21819005       0.00000000
Si      -2.85816198      -1.41962464       0.84631405       0.00000000
