10
Lattice="16.290000149 0.0 0.0 0.0 16.290000149 0.0 0.0 0.0 29.1751946751" Properties=species:S:1:pos:R:3:initial_magmoms:R:1 pbc="T T T"
Si      -1.27246567       1.42190524       1.32541772       0.00000000
Si       1.62739871      -1.18548847       1.22255211       0.00000000
Si       0.66609322       1.75516607      -1.52005682       0.00000000
Si      -1.31058427      -1.98768953      -0.49101853       0.00000000
Si       0.29016237      -2.59435520       2.57165045       0.00000000
Si       0.13606386       0.83758294      -3.61416477       0.00000000
Si      -2.60285369       0.08498493       2.67273667       0.00000000
Si      -0.34288333      -2.83215988      -2.45547191       0.00000000
Si       0.23220418       2.80595253       2.49907132       0.00000000
Si      -2.40934478       2.92996830      -0.05388658       0.00000000
