10
Lattice="16.290000149 0.0 0.0 0.0 16.290000149 0.0 0.0 0.0 29.1751946751" Properties=species:S:1:pos:R:3:initial_magmoms:R:1 pbc="T T T"
Si       1.31340395       1.33444782      -1.36811240       0.00000000
Si      -1.27226530      -1.46417779      -1.30208894       0.00000000
Si      -1.30214116       1.41201461       1.34372194       0.00000000
Si       1.23460282      -1.49403736       1.35591717       0.00000000
H       -1.91884799      -2.29289897      -0.22724559       0.00000000
Si      -2.58670541      -0.02493999       2.63125246       0.00000000
Si       2.54382199       2.69671504       0.07708086       0.00000000
Si      -0.15552063       2.62746788      -2.64015089       0.00000000
Si       2.69308237      -0.06051735      -2.66824660       0.00000000
Si       2.57466873      -2.79525000      -0.06975789       0.00000000
