10
Lattice="16.290000149 0.0 0.0 0.0 16.290000149 0.0 0.0 0.0 29.1751946751" Properties=species:S:1:pos:R:3:initial_magmoms:R:1 pbc="T T T"
Si       0.59777785       0.11122812       1.39895058       0.00000000
H        2.12084399      -0.74256337      -0.28860103       0.00000000
Si       1.40791213      -0.83004067      -1.61738527       0.00000000
Si      -0.46328760      -2.29614068      -1.77860739       0.00000000
Si      -1.11283507       0.53437716       2.93636664       0.00000000
H       -3.11386611      -0.64021330       0.74703086       0.00000000
Si       1.07007382      -1.90555535       2.47709073       0.00000000
Si       1.06844482       1.11623968      -2.99445446       0.00000000
H       -1.70893505      -2.67151115       1.19691236       0.00000000
Si       2.50835051       1.59541003       1.71812721       0.00000000
