10
Lattice="16.290000149 0.0 0.0 0.0 16.290000149 0.0 0.0 0.0 29.1751946751" Properties=species:S:1:pos:R:3:initial_magmoms:R:1 pbc="T T T"
Si      -1.34982199      -1.34449516      -1.31186263       0.00000000
Si       1.39515706      -1.28270719       1.35976830       0.00000000
Si       1.38528532       1.33520986      -1.33960824       0.00000000
Si      -1.18275175       1.45204174       1.41234200       0.00000000
Si       2.27289485       0.60676993       2.42886413       0.00000000
Si       0.67192993       2.38392749       2.52050342       0.00000000
Si      -2.66051540       0.08223192      -2.60907931       0.00000000
Si       0.08790084      -2.68043807      -2.59247862       0.00000000
Si       0.01912446      -2.60188769       2.71583135       0.00000000
Si      -2.72236853      -2.59846679       0.11953077       0.00000000
