10
Lattice="16.290000149 0.0 0.0 0.0 16.290000149 0.0 0.0 0.0 29.1751946751" Properties=species:S:1:pos:R:3:initial_magmoms:R:1 pbc="T T T"
Si       1.34729704       1.36264222       1.35110327       0.00000000
Si      -1.34437136       1.35692443      -1.36338602       0.00000000
Si       1.35769006      -1.35571897      -1.35588800       0.00000000
Si      -1.36831603      -1.36433638       1.34462637       0.00000000
Si      -0.03873762      -2.69812901      -2.68411791       0.00000000
Si       2.69128721      -0.01980864       2.69462098       0.00000000
Si      -2.67882031      -0.01982493      -2.71025888       0.00000000
Si      -0.04085532       2.71412579       2.68496399       0.00000000
Si       2.69650001       2.70979265      -0.02684118       0.00000000
Si       2.68926725      -2.72474687       0.01671739       0.00000000
