10
Lattice="16.290000149 0.0 0.0 0.0 16.290000149 0.0 0.0 0.0 29.1751946751" Properties=species:S:1:pos:R:3:initial_magmoms:R:1 pbc="T T T"
Si      -1.37027735       1.23904999      -1.44402626       0.00000000
Si       1.19881369      -1.40297626      -1.47439764       0.00000000
Si      -1.36756506      -1.42602661       1.30144708       0.00000000
Si       1.43557255       1.40928049       1.31626808       0.00000000
Si      -0.06892299       2.74341522       2.56359518       0.00000000
Si       0.06708222      -2.64101627       2.68038349       0.00000000
Si       2.55497249      -2.76024279      -0.17134592       0.00000000
Si      -2.77446396       2.55788840      -0.13029642       0.00000000
Si       2.73843047       2.64753227      -0.18158641       0.00000000
Si      -0.03800457       2.63648765      -2.78556006       0.00000000
