10
Lattice="16.290000149 0.0 0.0 0.0 16.290000149 0.0 0.0 0.0 29.1751946751" Properties=species:S:1:pos:R:3:initial_magmoms:R:1 pbc="T T T"
Si       1.37940463      -1.35444835      -1.32770184       0.00000000
Si       1.34156296       1.32535441       1.39977041       0.00000000
Si      -1.35466012      -1.39905037       1.31767141       0.00000000
Si      -1.32556618       1.39401676      -1.37220860       0.00000000
Si      -0.03484431      -2.65165364      -2.67012053       0.00000000
Si      -2.65934252       2.70861977       0.04497940       0.00000000
Si       2.70303230       0.04460202      -2.67360405       0.00000000
Si      -2.70537806      -0.02902878       2.67688538       0.00000000
Si      -2.75063169       0.02738349      -2.64396934       0.00000000
Si       2.69299766       2.71828066       0.08823162       0.00000000
