10
Lattice="16.290000149 0.0 0.0 0.0 16.290000149 0.0 0.0 0.0 29.1751946751" Properties=species:S:1:pos:R:3:initial_magmoms:R:1 pbc="T T T"
Si       1.34748744       1.35415513      -1.35790109       0.00000000
Si      -1.34283358       1.36524862       1.35285378       0.00000000
Si       1.34314309      -1.35700588       1.37015467       0.00000000
Si      -1.37016820      -1.34824186      -1.35708418       0.00000000
Si      -2.68108967      -0.08164548       2.60925436       0.00000000
Si       2.67067548      -2.70749576      -0.02450716       0.00000000
Si       2.66238224       2.72020196       0.03708167       0.00000000
Si      -0.02120958       2.71034651      -2.70048519       0.00000000
Si       2.69119925       0.02199150       2.72189979       0.00000000
Si      -0.02658528      -2.68286528      -2.74194315       0.00000000
