10
Lattice="16.290000149 0.0 0.0 0.0 16.290000149 0.0 0.0 0.0 29.1751946751" Properties=species:S:1:pos:R:3:initial_magmoms:R:1 pbc="T T T"
Si      -1.34001541      -1.34811154       1.37397662       0.00000000
Si       1.32338332      -1.37122705      -1.37397662       0.00000000
Si      -1.35936793       1.32524038      -1.39256122       0.00000000
Si       1.34332228       1.32802597       1.40749892       0.00000000
Si       2.69878061       2.67432932       0.01225358       0.00000000
Si       2.62686026      -2.75164167       0.00177969       0.00000000
Si      -2.73163754       0.00747711       2.68563502       0.00000000
Si      -2.73212624       2.68542281      -0.07188768       0.00000000
Si       2.67748958      -0.02425581      -2.74879932       0.00000000
Si      -0.00599472       2.70006752      -2.73634151       0.00000000
