10
Lattice="16.290000149 0.0 0.0 0.0 16.290000149 0.0 0.0 0.0 29.1751946751" Properties=species:S:1:pos:R:3:initial_magmoms:R:1 pbc="T T T"
Si       1.29831301       1.48900375      -1.27102990       0.00000000
Si       1.37430586      -1.34985457       1.36309719       0.00000000
Si      -1.38264634       1.37059174       1.35447008       0.00000000
Si      -1.17685477      -1.46769643      -1.45003927       0.00000000
Si       2.59862969       0.06283053      -2.57512230       0.00000000
Si      -2.52675007      -0.05880690      -2.76753271       0.00000000
Si      -2.66490230      -2.66737349      -0.01507482       0.00000000
Si       0.01686015      -2.66287745       2.76189606       0.00000000
Si       2.71717202       0.02204037       2.72603975       0.00000000
Si      -0.02150280       2.74160702       2.71676204       0.00000000
