10
Lattice="16.290000149 0.0 0.0 0.0 16.290000149 0.0 0.0 0.0 29.1751946751" Properties=species:S:1:pos:R:3:initial_magmoms:R:1 pbc="T T T"
Si       1.34313511       1.21501898       1.48408672       0.00000000
Si       1.17900847      -1.59802621      -1.27297209       0.00000000
Si      -1.47214507      -1.30237900       1.38557668       0.00000000
Si      -0.25761153       1.82168465      -1.57858226       0.00000000
Si       2.52465534      -0.18985344      -2.60837910       0.00000000
Si       0.71008941       0.97721430      -3.54303564       0.00000000
Si       2.68037145       2.62388571       0.13498837       0.00000000
Si      -0.09541353       2.52340899       2.82785242       0.00000000
Si       2.53260486      -2.83925906       0.18170370       0.00000000
Si       2.62389402      -0.15802278       2.87065243       0.00000000
