10
Lattice="16.290000149 0.0 0.0 0.0 16.290000149 0.0 0.0 0.0 29.1751946751" Properties=species:S:1:pos:R:3:initial_magmoms:R:1 pbc="T T T"
Si       1.36777357      -1.35715249       1.32732548       0.00000000
Si       1.36930483       1.34315938      -1.34261328       0.00000000
Si      -1.34014573      -1.36365220      -1.36461138       0.00000000
Si      -1.31864293       1.36386397       1.38976040       0.00000000
Si      -0.01184283       2.68855049      -2.67965411       0.00000000
Si      -0.00910611      -2.68688891       2.68225070       0.00000000
Si       2.71590140       0.00560376       2.67545288       0.00000000
Si      -2.69968145      -2.71547786      -0.00300505       0.00000000
Si      -2.69113083      -0.00516393      -2.72464226       0.00000000
Si       2.71876844      -0.02257794      -2.69855963       0.00000000
