10
Lattice="16.290000149 0.0 0.0 0.0 16.290000149 0.0 0.0 0.0 29.1751946751" Properties=species:S:1:pos:R:3:initial_magmoms:R:1 pbc="T T T"
Si      -1.45681960       1.20827818       1.34500565       0.00000000
Si       1.17877210       1.52673139      -1.31915643       0.00000000
Si      -0.23465582      -1.85275946      -1.43410669       0.00000000
Si       1.43172323      -1.18861615       1.44723553       0.00000000
H       -2.96040290      -1.24222654      -1.41908147       0.00000000
Si       2.07328859      -2.03452328      -2.03397787       0.00000000
Si      -2.61627665      -0.43030035       2.52639681       0.00000000
Si       2.52916425       0.17115903      -2.64802819       0.00000000
Si       3.14991099      -1.94362508       0.06459388       0.00000000
Si      -0.00374670       2.58447368       2.70331519       0.00000000
