10
Lattice="16.290000149 0.0 0.0 0.0 16.290000149 0.0 0.0 0.0 29.1751946751" Properties=species:S:1:pos:R:3:initial_magmoms:R:1 pbc="T T T"
Si       1.34958253      -1.35892647       1.35547954       0.00000000
Si      -1.31400077      -1.38174876      -1.36831663       0.00000000
Si      -1.37625578       1.34948153       1.34331349       0.00000000
Si       1.32408868       1.38471680      -1.36026428       0.00000000
Si      -2.63460942       0.05163116      -2.64671531       0.00000000
Si       2.68104569      -0.01314114      -2.64438129       0.00000000
Si      -0.00548973       2.71850943       2.66848001       0.00000000
Si       2.67039203      -2.73033272      -0.03083818       0.00000000
Si       2.70675131       0.00363756       2.70681621       0.00000000
Si      -0.02573983      -2.70666335       2.70739972       0.00000000
