10
Lattice="16.290000149 0.0 0.0 0.0 16.290000149 0.0 0.0 0.0 29.1751946751" Properties=species:S:1:pos:R:3:initial_magmoms:R:1 pbc="T T T"
Si       1.36402687       1.34943103      -1.35034471       0.00000000
Si       1.37471311      -1.35154873       1.34500565       0.00000000
Si      -1.35104374       1.36137160       1.36216066       0.00000000
Si      -1.36927225      -1.36181143      -1.35314553       0.00000000
Si      -0.00280188      -2.67110390       2.70807075       0.00000000
Si      -0.02611287       2.69684536      -2.68490564       0.00000000
Si       2.66527208      -2.72007164      -0.06745305       0.00000000
Si       2.72587088       2.69194533       0.02827076       0.00000000
Si       2.68473863      -0.01936881      -2.73365739       0.00000000
Si      -2.68936174       0.01254330       2.73289884       0.00000000
