10
Lattice="16.290000149 0.0 0.0 0.0 16.290000149 0.0 0.0 0.0 29.1751946751" Properties=species:S:1:pos:R:3:initial_magmoms:R:1 pbc="T T T"
Si       0.88819597      -0.73844200      -0.99198579       0.00000000
Si      -1.09600750       1.71007535       0.80267758       0.00000000
Si      -1.93846115      -0.28621530       1.87493805       0.00000000
Si      -1.32646213       2.16068933      -1.48968544       0.00000000
Si       2.28733594      -1.91449856       0.46581116       0.00000000
Si      -0.71964334      -1.85018564      -2.33270269       0.00000000
Si       2.04765302       0.90013654      -2.17337695       0.00000000
Si       0.84957238       2.57197925       1.84348136       0.00000000
Si      -0.50562531      -1.65032363       3.20226937       0.00000000
Si       0.82332919      -3.08767179       1.88287079       0.00000000
