10
Lattice="10.86 0.0 0.0 0.0 10.86 0.0 0.0 0.0 10.86" Properties=species:S:1:pos:R:3:initial_magmoms:R:1 pbc="T T T"
Si       1.35874890       1.46802222       1.21154160       0.00000000
Si      -1.30540458      -1.44809412       1.36211550       0.00000000
Si       1.35874890      -1.24697778      -1.50345840       0.00000000
Si      -1.35625110       1.46802222      -1.50345840       0.00000000
Si      -2.56617456      -2.78970594       0.03778194       0.00000000
Si       0.00124890       2.82552222       2.56904160       0.00000000
Si       2.98075506      -2.35606614      -0.42108564       0.00000000
Si      -2.74746054       0.11042448       2.66012442       0.00000000
Si       2.85661440      -0.01860318       2.55167646       0.00000000
Si       0.00124890      -2.60447778      -2.86095840       0.00000000
