10
Lattice="10.86 0.0 0.0 0.0 10.86 0.0 0.0 0.0 10.86" Properties=species:S:1:pos:R:3:initial_magmoms:R:1 pbc="T T T"
Si       1.09299384      -1.60591164      -1.08237276       0.00000000
Si      -1.62200616       1.10908836      -1.08237276       0.00000000
Si       1.09299384       1.10908836       1.63262724       0.00000000
Si       2.45049384      -0.24841164      -2.43987276       0.00000000
Si      -0.26450616       2.46658836      -2.43987276       0.00000000
Si       2.45049384       2.46658836       0.27512724       0.00000000
Si      -0.12414066       2.33746296       2.97276210       0.00000000
Si      -2.98075506       2.35606614       0.42108564       0.00000000
Si      -0.26450616      -2.96341164      -2.43987276       0.00000000
Si       2.45049384      -2.96341164       0.27512724       0.00000000
