10
Lattice="10.86 0.0 0.0 0.0 10.86 0.0 0.0 0.0 10.86" Properties=species:S:1:pos:R:3:initial_magmoms:R:1 pbc="T T T"
Si       1.21713450      -1.22837460      -1.34013486       0.00000000
Si       1.21713450       1.48662540       1.37486514       0.00000000
Si      -1.49786550       1.48662540      -1.34013486       0.00000000
Si      -0.24203682      -2.33280402       2.60468412       0.00000000
Si       2.57463450      -2.58587460       0.01736514       0.00000000
Si       2.57463450       0.12912540      -2.69763486       0.00000000
Si       2.57463450       0.12912540       2.73236514       0.00000000
Si       0.12414066      -2.33746296      -2.97276210       0.00000000
Si      -2.67104958       0.20476530       2.71566246       0.00000000
Si      -2.85661440       0.01860318      -2.55167646       0.00000000
