10
Lattice="10.86 0.0 0.0 0.0 10.86 0.0 0.0 0.0 10.86" Properties=species:S:1:pos:R:3:initial_magmoms:R:1 pbc="T T T"
Si       1.22930856      -1.45741200      -1.28941866       0.00000000
Si      -1.48569144       1.25758800      -1.28941866       0.00000000
Si      -1.48569144      -1.45741200       1.42558134       0.00000000
Si       2.57663274       0.10280076       2.54861394       0.00000000
Si      -2.69561490       2.42985984       0.25182168       0.00000000
Si       2.58680856      -0.09991200      -2.64691866       0.00000000
Si      -0.12819144       2.61508800      -2.64691866       0.00000000
Si       2.58680856      -2.81491200       0.06808134       0.00000000
Si      -0.12819144      -2.81491200      -2.64691866       0.00000000
Si      -2.84319144      -0.09991200      -2.64691866       0.00000000
