10
Lattice="10.86 0.0 0.0 0.0 10.86 0.0 0.0 0.0 10.86" Properties=species:S:1:pos:R:3:initial_magmoms:R:1 pbc="T T T"
Si       1.37236734       0.34435974      -1.77776028       0.00000000
Si       1.27397574      -1.29447942       1.47781794       0.00000000
Si      -1.36960890       1.46356962       1.40314458       0.00000000
Si       0.44814876       2.73430908      -2.13494568       0.00000000
Si      -0.04289700      -2.61253590      -2.47169256       0.00000000
Si      -2.75789700       0.10246410      -2.47169256       0.00000000
Si       2.67210300      -2.61253590       0.24330744       0.00000000
Si      -2.75789700      -2.61253590       0.24330744       0.00000000
Si      -0.04289700      -2.61253590       2.95830744       0.00000000
Si      -2.75789700       2.81746410       0.24330744       0.00000000
