10
Lattice="10.86 0.0 0.0 0.0 10.86 0.0 0.0 0.0 10.86" Properties=species:S:1:pos:R:3:initial_magmoms:R:1 pbc="T T T"
Si      -1.17739776       0.49720338       2.01192360       0.00000000
Si      -1.27347618      -1.98303600      -0.44344638       0.00000000
Si       0.36192036       1.65177342      -1.85590884       0.00000000
Si      -0.89711202       0.27208644      -3.08416398       0.00000000
Si      -2.51761950       1.83740340       0.84684108       0.00000000
Si      -2.51761950      -0.87759660      -1.86815892       0.00000000
Si      -1.16506080       3.22374756      -0.50961636       0.00000000
Si       1.75409634      -2.51819508       2.29129710       0.00000000
Si      -3.87511950       0.47990340      -0.51065892       0.00000000
Si       0.19738050       1.83740340       3.56184108       0.00000000
