10
Lattice="10.86 0.0 0.0 0.0 10.86 0.0 0.0 0.0 10.86" Properties=species:S:1:pos:R:3:initial_magmoms:R:1 pbc="T T T"
Si      -1.18324044      -1.27046796       1.35499134       0.00000000
Si       1.23115476      -1.29603240      -1.31399484       0.00000000
Si      -1.18324044       1.44453204      -1.36000866       0.00000000
Si       1.53175956       1.44453204       1.35499134       0.00000000
Si       1.15882716       0.46453650      -2.90771070       0.00000000
Si      -2.54074044      -2.62796796      -0.00250866       0.00000000
Si      -2.54074044       0.08703204       2.71249134       0.00000000
Si      -2.54074044       0.08703204      -2.71750866       0.00000000
Si       2.66253534       2.64396474       0.04931526       0.00000000
Si       0.17425956      -2.62796796       2.71249134       0.00000000
