10
Lattice="10.86 0.0 0.0 0.0 10.86 0.0 0.0 0.0 10.86" Properties=species:S:1:pos:R:3:initial_magmoms:R:1 pbc="T T T"
Si       1.46791362       1.19983452       1.42203012       0.00000000
Si      -1.24708638      -1.51516548       1.42203012       0.00000000
Si       1.46791362      -1.51516548      -1.29296988       0.00000000
Si       0.03743442       2.28416208      -2.67557820       0.00000000
Si      -2.83131060       2.39926722       0.11635404       0.00000000
Si       0.11041362       2.55733452       2.77953012       0.00000000
Si       2.82541362       2.55733452       0.06453012       0.00000000
Si      -2.60458638      -0.15766548       2.77953012       0.00000000
Si      -2.47837146      -2.90520204      -0.05668920       0.00000000
Si       2.82541362      -0.15766548      -2.65046988       0.00000000
