10
Lattice="16.290000149 0.0 0.0 0.0 16.290000149 0.0 0.0 0.0 29.1751946751" Properties=species:S:1:pos:R:3:initial_magmoms:R:1 pbc="T T T"
Si      -1.34627566      -1.32890563       1.38096116       0.00000000
Si       1.36225126       1.36787131       1.36310594       0.00000000
Si      -1.38573330       1.33972219      -1.37172721       0.00000000
Si       1.38463372      -1.37101528      -1.35104492       0.00000000
Si       2.68415219       0.11305260      -2.62558255       0.00000000
Si      -2.67721265      -2.68908806       0.00269871       0.00000000
Si      -2.60589422      -0.15016122      -2.76985214       0.00000000
Si      -0.04052952       2.80230357      -2.60470653       0.00000000
Si      -2.70040961       0.05944221       2.71143756       0.00000000
Si       0.02249649      -2.67820634       2.74393873       0.00000000
