10
Lattice="16.290000149 0.0 0.0 0.0 16.290000149 0.0 0.0 0.0 29.1751946751" Properties=species:S:1:pos:R:3:initial_magmoms:R:1 pbc="T T T"
Si       1.61275888      -0.17055630      -1.67879905       0.00000000
Si      -0.43554573       2.28890141      -0.30315945       0.00000000
Si       0.24957909      -0.51246711       2.29828588       0.00000000
Si      -1.89752438      -1.30085425      -0.63216812       0.00000000
H        1.33032286      -2.22509999       1.51145014       0.00000000
H       -2.78014917      -0.44905014      -1.52119465       0.00000000
Si      -1.49648086       1.02995155       2.74944992       0.00000000
Si       0.04891887      -0.95008168      -3.26995582       0.00000000
Si      -2.33061032       2.27382990       1.03580694       0.00000000
Si      -0.86700268      -2.78804982      -2.10367741       0.00000000
