10
Lattice="16.290000149 0.0 0.0 0.0 16.290000149 0.0 0.0 0.0 29.1751946751" Properties=species:S:1:pos:R:3:initial_magmoms:R:1 pbc="T T T"
Si       1.07992927      -1.41788161      -1.50050944       0.00000000
Si      -1.54425943       1.32382315      -1.18719702       0.00000000
Si      -1.05591781      -1.76254544       1.18086600       0.00000000
Si       2.12866319       0.96322771       0.68445007       0.00000000
Si       0.21825342       0.80558938       3.38791113       0.00000000
Si       2.37718343      -2.71997390      -0.08349941       0.00000000
Si      -0.19989459       2.70076799      -2.50148119       0.00000000
Si      -1.40304142      -0.88154965       3.31579005       0.00000000
Si       2.49878828      -0.09431910      -2.73940490       0.00000000
Si       0.55030879      -3.53553276       1.09678309       0.00000000
