10
Lattice="16.290000149 0.0 0.0 0.0 16.290000149 0.0 0.0 0.0 29.1751946751" Properties=species:S:1:pos:R:3:initial_magmoms:R:1 pbc="T T T"
Si       1.34446258       1.35474157      -1.36563251       0.00000000
Si      -1.35589816      -1.36273996      -1.35127832       0.00000000
Si       1.38979765      -1.34871427       1.33257702       0.00000000
Si      -1.38385180       1.35576784       1.33415248       0.00000000
Si       0.02578707      -2.69851997       2.68195895       0.00000000
Si      -0.03073923       2.72409527       2.67326474       0.00000000
Si      -2.70225201      -0.00219100      -2.70661199       0.00000000
Si       2.70402599      -0.00276278      -2.70521158       0.00000000
Si       2.71715573       2.70221780      -0.02208562       0.00000000
Si       2.70946685      -2.71723718      -0.05126082       0.00000000
