10
Lattice="16.290000149 0.0 0.0 0.0 16.290000149 0.0 0.0 0.0 29.1751946751" Properties=species:S:1:pos:R:3:initial_magmoms:R:1 pbc="T T T"
Si      -1.35567010      -1.31461930       1.39914314       0.00000000
Si       1.34355034       1.36945144       1.36311178       0.00000000
Si      -1.37337733       1.35171163      -1.36107535       0.00000000
Si       1.42669450      -1.37582083      -1.29347934       0.00000000
Si      -2.67576284      -2.65556324       0.00473222       0.00000000
Si      -2.54674604      -0.11614770      -2.81054570       0.00000000
Si       2.68503185      -0.00680922      -2.71841043       0.00000000
Si       2.71044425       2.71981100       0.01273789       0.00000000
Si      -0.00333945      -2.68208336       2.75535207       0.00000000
Si       2.80181487      -2.64008774       0.12372908       0.00000000
