10
Lattice="16.290000149 0.0 0.0 0.0 16.290000149 0.0 0.0 0.0 29.1751946751" Properties=species:S:1:pos:R:3:initial_magmoms:R:1 pbc="T T T"
Si       1.63665631      -1.72556714      -0.21219119       0.00000000
Si      -1.86530276      -0.84048256      -1.25479595       0.00000000
Si      -0.64594738       0.33231600       2.32219962       0.00000000
Si       0.62568262       1.91818010      -1.40723634       0.00000000
H        2.18427725       0.79413751       1.17660643       0.00000000
H       -1.07776270       2.51100578       0.13837795       0.00000000
H       -2.62255970      -0.28681803       1.22416199       0.00000000
H        0.54797931      -1.64587646       2.56826321       0.00000000
H       -0.56992195       2.44193618      -2.18361745       0.00000000
H       -3.28202778       0.12300579       1.17794848       0.00000000
