10
Lattice="16.290000149 0.0 0.0 0.0 16.290000149 0.0 0.0 0.0 29.1751946751" Properties=species:S:1:pos:R:3:initial_magmoms:R:1 pbc="T T T"
Si       1.37816985      -1.45245388       1.15773008       0.00000000
Si      -1.23240991      -1.35923403      -1.44542667       0.00000000
Si       1.40677509       1.29531076      -1.39002298       0.00000000
Si      -1.21895709       1.28539015       1.60606529       0.00000000
H        1.61300649       1.51203293       2.10927905       0.00000000
Si       2.22459826       0.20868956       2.55420077       0.00000000
Si      -2.51439084       2.62638297       0.11001966       0.00000000
Si      -2.54495089      -2.69339351      -0.07708086       0.00000000
Si       0.05621679       2.62885905      -2.76796742       0.00000000
Si      -2.70258922      -0.06770939      -2.71761103       0.00000000
