10
Lattice="16.290000149 0.0 0.0 0.0 16.290000149 0.0 0.0 0.0 29.1751946751" Properties=species:S:1:pos:R:3:initial_magmoms:R:1 pbc="T T T"
Si       1.36879984       1.34873056       1.32315343       0.00000000
Si       1.38992797      -1.36366849      -1.30246822       0.00000000
Si      -1.34534224       1.38085444      -1.33724505       0.00000000
Si      -1.34311051      -1.34897491       1.37423919       0.00000000
Si      -0.04774599       2.66761784       2.62696370       0.00000000
Si       0.01185912      -2.69946479      -2.64575253       0.00000000
Si      -2.70730028       0.02298519      -2.68137544       0.00000000
Si       2.71298549      -0.00408879       2.68032513       0.00000000
Si       2.74646145      -0.00773775      -2.65934817       0.00000000
Si      -2.70976007      -2.70690932       0.04519238       0.00000000
