10
Lattice="16.290000149 0.0 0.0 0.0 16.290000149 0.0 0.0 0.0 29.1751946751" Properties=species:S:1:pos:R:3:initial_magmoms:R:1 pbc="T T T"
Si      -1.32968755       1.31414689       1.41962705       0.00000000
Si      -1.42711804      -1.35907471      -1.27880772       0.00000000
Si       1.32885676      -1.39593898       1.36874842       0.00000000
Si       1.33511212       1.36464329      -1.40850546       0.00000000
Si       0.01772352      -2.55208916      -2.63622683       0.00000000
Si       2.63306675       2.64820016       0.09740139       0.00000000
Si      -2.60861546       2.68716096       0.03222692       0.00000000
Si      -2.74165590      -0.07641639       2.67593427       0.00000000
Si       2.66582594      -0.07104069       2.77337942       0.00000000
Si       2.71054199      -2.75248875       0.04425877       0.00000000
