10
Lattice="16.290000149 0.0 0.0 0.0 16.290000149 0.0 0.0 0.0 29.1751946751" Properties=species:S:1:pos:R:3:initial_magmoms:R:1 pbc="T T T"
Si       1.30989520      -1.42842124       1.29736256       0.00000000
Si      -1.35052246      -1.38652336      -1.32373693       0.00000000
Si       1.37552761       1.32960610      -1.35676325       0.00000000
Si      -1.30072393       1.35612622       1.41870219       0.00000000
Si       2.66084120      -0.08490348       2.60960446       0.00000000
Si      -2.66770581       2.69975801       0.05560792       0.00000000
Si       0.01050705       2.68669343      -2.68651028       0.00000000
Si      -2.68872480      -0.02834460      -2.68858171       0.00000000
Si       0.03736926      -2.73821870      -2.65739343       0.00000000
Si      -2.63575786      -0.04324995       2.76038187       0.00000000
