10
Lattice="16.290000149 0.0 0.0 0.0 16.290000149 0.0 0.0 0.0 29.1751946751" Properties=species:S:1:pos:R:3:initial_magmoms:R:1 pbc="T T T"
Si      -1.34669757      -1.34772058       1.36825828       0.00000000
Si       1.35146728      -1.36928854      -1.35883469       0.00000000
Si      -1.36585135       1.34780203      -1.37190518       0.00000000
Si       1.33081156       1.34579836       1.41432591       0.00000000
Si      -2.64718660       2.69327459       0.08417044       0.00000000
Si       0.04611699       2.73836531      -2.62821240       0.00000000
Si       2.70466130       0.02827944      -2.67909102       0.00000000
Si      -2.71119359      -2.67771764      -0.01050307       0.00000000
Si       2.71821458       2.70498710       0.11048646       0.00000000
Si       0.00428427      -2.70666497       2.72788070       0.00000000
