10
Lattice="16.290000149 0.0 0.0 0.0 16.290000149 0.0 0.0 0.0 29.1751946751" Properties=species:S:1:pos:R:3:initial_magmoms:R:1 pbc="T T T"
Si      -2.06904179       0.72110455      -0.84616817       0.00000000
Si      -0.78315805      -1.49647435       1.70966641       0.00000000
Si       1.04902714      -0.67418772      -2.06957161       0.00000000
Si       0.92150902       2.08128210       0.81430886       0.00000000
H       -1.38833155       2.28142104       1.73049750       0.00000000
Si      -1.31341384       1.30744519      -2.99982269       0.00000000
Si      -2.66957264       2.24294406       0.91026607       0.00000000
H        0.39063420      -3.57990021      -0.53396441       0.00000000
Si      -2.32499027      -2.80759130       0.52086475       0.00000000
Si      -3.35626783      -1.26527038      -0.96222710       0.00000000
