10
Lattice="16.290000149 0.0 0.0 0.0 16.290000149 0.0 0.0 0.0 29.1751946751" Properties=species:S:1:pos:R:3:initial_magmoms:R:1 pbc="T T T"
Si      -1.38732157       1.34622190       1.32799651       0.00000000
Si      -1.36498798      -1.34161183      -1.37050477       0.00000000
Si       1.34587981       1.37085238      -1.36093531       0.00000000
Si       1.33563340      -1.36371736       1.38001588       0.00000000
Si      -2.68335398       2.65012238      -0.12790405       0.00000000
Si       2.65915682      -2.70143588      -0.02509067       0.00000000
Si      -0.00138465       2.74033641       2.63081483       0.00000000
Si      -2.78176188      -0.05321943       2.62340433       0.00000000
Si       2.72691019       0.00548973       2.69491273       0.00000000
Si      -0.01666467      -2.68985369      -2.73479522       0.00000000
