10
Lattice="16.290000149 0.0 0.0 0.0 16.290000149 0.0 0.0 0.0 29.1751946751" Properties=species:S:1:pos:R:3:initial_magmoms:R:1 pbc="T T T"
Si      -1.34847579      -1.35293338       1.35687995       0.00000000
Si      -1.36877313       1.35653347      -1.34010422       0.00000000
Si       1.33041148      -1.34991973      -1.39013968       0.00000000
Si       1.31480566       1.36585135       1.39390328       0.00000000
Si       0.02992245       2.69107544      -2.67422752       0.00000000
Si       2.68139332      -2.70886412      -0.03051725       0.00000000
Si      -2.69440447       0.01430262       2.70354859       0.00000000
Si       2.69056459       2.71446788       0.04469640       0.00000000
Si      -2.71924672      -2.70190829       0.00256742       0.00000000
Si       2.70478576       0.01692531       2.72365030       0.00000000
