10
Lattice="16.290000149 0.0 0.0 0.0 16.290000149 0.0 0.0 0.0 29.1751946751" Properties=species:S:1:pos:R:3:initial_magmoms:R:1 pbc="T T T"
Si       1.33372747       1.34000564      -1.32821241       0.00000000
Si      -1.33020883       1.41924020       1.28630516       0.00000000
Si       1.43426935      -1.34629684       1.26095191       0.00000000
Si      -1.36037791      -1.28257060      -1.41002257       0.00000000
Si       0.05354523      -2.68878833       2.59562954       0.00000000
Si      -2.67864617       0.04604857       2.62401701       0.00000000
Si       0.05535342       2.76932283       2.61074230       0.00000000
Si       2.78089851       0.04147271       2.59965572       0.00000000
Si      -2.71039538      -2.67741791      -0.09960411       0.00000000
Si      -0.03999195      -2.77159040      -2.61815863       0.00000000
