10
Lattice="16.290000149 0.0 0.0 0.0 16.290000149 0.0 0.0 0.0 29.1751946751" Properties=species:S:1:pos:R:3:initial_magmoms:R:1 pbc="T T T"
H       -0.63961057      -0.83437381       1.07210088       0.00000000
Si      -1.58864968       1.07952202      -1.31180428       0.00000000
Si       1.22868955      -1.34353405      -1.44869429       0.00000000
Si       1.27448074       1.45078741       1.31078315       0.00000000
H       -2.05552109      -1.76318075       0.49005574       0.00000000
Si      -3.18228411       0.99023653       0.48707988       0.00000000
H       -1.33921720      -2.43235766       2.23969217       0.00000000
Si       2.50075937      -0.04074129       2.67443175       0.00000000
Si      -0.28466775       2.66333357      -2.58956110       0.00000000
Si       2.56357361      -2.70060509      -0.12376118       0.00000000
