10
Lattice="16.290000149 0.0 0.0 0.0 16.290000149 0.0 0.0 0.0 29.1751946751" Properties=species:S:1:pos:R:3:initial_magmoms:R:1 pbc="T T T"
Si       1.20853882       1.62812035       1.16096852       0.00000000
Si      -1.30357468       1.32235705      -1.43988338       0.00000000
Si      -1.27565362      -1.37663533       1.43130588       0.00000000
Si       1.46150623      -1.33475374      -1.28980618       0.00000000
H        2.11958966       0.56778796       1.95018671       0.00000000
Si      -2.61312779      -2.66211182      -0.00606844       0.00000000
Si       0.11899845      -2.66727575      -2.69660489       0.00000000
Si      -2.64653858       0.00534312      -2.80720806       0.00000000
Si       0.09086562       2.72179838      -2.73529120       0.00000000
Si      -2.68565087       2.76648186      -0.26464819       0.00000000
