10
Lattice="16.290000149 0.0 0.0 0.0 16.290000149 0.0 0.0 0.0 29.1751946751" Properties=species:S:1:pos:R:3:initial_magmoms:R:1 pbc="T T T"
Si      -0.53017434      -0.25430319       1.38830164       0.00000000
H       -0.67295620      -0.92696617      -1.62152814       0.00000000
H       -1.59731596       0.85089187      -1.17065469       0.00000000
H        1.27071775       1.76033000       0.42957557       0.00000000
Si       0.45949203      -0.98422552      -2.62500897       0.00000000
Si       2.18154053       1.83313001      -0.78522119       0.00000000
Si       2.51656067      -0.28893573      -1.71611413       0.00000000
Si       1.15857739      -1.18563508       2.69759685       0.00000000
Si      -2.32815053      -1.84798649       1.27682322       0.00000000
Si      -1.38219022       1.61924230       2.50258985       0.00000000
