10
Lattice="16.290000149 0.0 0.0 0.0 16.290000149 0.0 0.0 0.0 29.1751946751" Properties=species:S:1:pos:R:3:initial_magmoms:R:1 pbc="T T T"
Si      -1.32111901      -1.32594085       1.36516746       0.00000000
Si       1.26299792      -1.42786738      -1.32637262       0.00000000
Si      -1.14106564       1.49998321      -1.38349765       0.00000000
Si       1.50680221       1.38513871       1.16684324       0.00000000
Si       1.94500973       0.33589980      -2.83070401       0.00000000
H       -2.32707539       0.95902489      -2.42802797       0.00000000
Si       0.52993977       2.28504719      -2.82822412       0.00000000
Si       0.10624338       2.73481409       2.53540494       0.00000000
Si       0.12932098      -2.71044425       2.59114707       0.00000000
Si      -2.57901653       0.07522722       2.72963880       0.00000000
