10
Lattice="16.290000149 0.0 0.0 0.0 16.290000149 0.0 0.0 0.0 29.1751946751" Properties=species:S:1:pos:R:3:initial_magmoms:R:1 pbc="T T T"
H        0.71739532       0.08185725       1.32557497       0.00000000
H       -1.39769830       0.83743633       1.63028070       0.00000000
Si       1.61166745      -0.78548752      -1.52274094       0.00000000
Si      -1.87181876      -1.46437327      -0.15532874       0.00000000
Si      -0.33645366       1.95043430      -1.37438507       0.00000000
H        1.86352715       1.70269598       0.18570011       0.00000000
H        2.52299522       1.29287215       0.23191362       0.00000000
Si      -0.79918741       0.92901871       3.03095262       0.00000000
Si       0.12412980      -1.80072920      -2.99249972       0.00000000
Si      -0.99979876      -3.24307839      -1.44320936       0.00000000
