10
Lattice="16.290000149 0.0 0.0 0.0 16.290000149 0.0 0.0 0.0 29.1751946751" Properties=species:S:1:pos:R:3:initial_magmoms:R:1 pbc="T T T"
Si      -1.41934771       1.37256283      -1.25432914       0.00000000
Si      -1.29865510      -1.23720922       1.50403964       0.00000000
Si       1.18421785      -1.45078741      -1.41202107       0.00000000
Si       1.85376944       0.93371023       1.10684854       0.00000000
Si       3.45999603      -0.83927710       1.02276562       0.00000000
Si      -0.04339656       2.69402393      -2.61762764       0.00000000
Si       2.58178583      -2.72940581      -0.05082319       0.00000000
Si       2.56525148      -0.11315034      -2.75343817       0.00000000
Si       0.15071508      -2.58866021       2.78448058       0.00000000
Si      -2.77734729      -0.00975771      -2.60292334       0.00000000
