10
Lattice="16.290000149 0.0 0.0 0.0 16.290000149 0.0 0.0 0.0 29.1751946751" Properties=species:S:1:pos:R:3:initial_magmoms:R:1 pbc="T T T"
Si       1.33093700       1.36018243       1.37826245       0.00000000
Si      -1.29521791      -1.31411431       1.46923071       0.00000000
Si      -1.38797317       1.36029646      -1.35596385       0.00000000
Si       1.40055883      -1.34967538      -1.36856170       0.00000000
Si      -0.10624338      -2.73481409      -2.53540494       0.00000000
Si       0.07131844       2.53892684      -2.77255084       0.00000000
Si      -2.68525991      -2.65958687       0.19423386       0.00000000
Si       2.67721265       2.68908806      -0.00269871       0.00000000
Si       2.69970914       0.01088172       2.74124002       0.00000000
Si       2.75946087      -2.68920209       0.01206394       0.00000000
