10
Lattice="16.290000149 0.0 0.0 0.0 16.290000149 0.0 0.0 0.0 29.1751946751" Properties=species:S:1:pos:R:3:initial_magmoms:R:1 pbc="T T T"
Si       1.42436503       1.39152439       1.17891127       0.00000000
Si      -1.31852890       1.43979166      -1.27699827       0.00000000
Si       1.41654583      -1.31888728      -1.30381027       0.00000000
Si      -1.38103363      -1.33763707       1.34141710       0.00000000
Si      -2.66634722       0.07687251      -2.62495062       0.00000000
Si       0.04774599      -2.66761784      -2.62696370       0.00000000
Si       0.01653435      -2.61625547       2.70261498       0.00000000
Si       2.72161919       0.08943210       2.59592130       0.00000000
Si      -2.56525148       0.11315034       2.75343817       0.00000000
Si       0.07157826       2.79811704      -2.59064059       0.00000000
