10
Lattice="16.290000149 0.0 0.0 0.0 16.290000149 0.0 0.0 0.0 29.1751946751" Properties=species:S:1:pos:R:3:initial_magmoms:R:1 pbc="T T T"
Si       1.19560456      -0.52375608       0.77638111       0.00000000
H       -0.71630389       0.66917692      -1.74963642       0.00000000
H        0.69960664       1.59798385      -1.16759129       0.00000000
H       -0.50784075       0.06906960       2.32199539       0.00000000
Si      -1.81811063       0.51023538       1.69137356       0.00000000
Si       2.29964303      -1.39896892      -1.09494506       0.00000000
Si      -1.59454666      -0.26060742      -2.52056177       0.00000000
Si      -1.55647693       2.54376497       0.49131028       0.00000000
Si      -2.78304879      -1.48532221       0.80517702       0.00000000
Si       0.56992195      -2.44193618       2.18361745       0.00000000
