10
Lattice="16.290000149 0.0 0.0 0.0 16.290000149 0.0 0.0 0.0 29.1751946751" Properties=species:S:1:pos:R:3:initial_magmoms:R:1 pbc="T T T"
Si       0.59851090       0.09158238       1.40067192       0.00000000
H        2.11509362      -0.75557908      -0.30470573       0.00000000
Si       1.39769830      -0.83743633      -1.63028070       0.00000000
Si      -0.47412045      -2.30180960      -1.78560944       0.00000000
Si      -1.11641887       0.53369298       2.92656378       0.00000000
H       -3.11753136      -0.64306405       0.74971498       0.00000000
Si       1.07619886      -1.93873808       2.45821438       0.00000000
Si       1.06124464       1.11299797      -3.00466577       0.00000000
H       -1.71018938      -2.67314015       1.19551195       0.00000000
Si       2.49709412       1.59083254       1.71801051       0.00000000
