10
Lattice="16.290000149 0.0 0.0 0.0 16.290000149 0.0 0.0 0.0 29.1751946751" Properties=species:S:1:pos:R:3:initial_magmoms:R:1 pbc="T T T"
Si      -1.34651512      -1.29189475       1.36925024       0.00000000
Si       1.25690383       1.31566675       1.47107167       0.00000000
Si       1.36396171      -1.37018449      -1.34439297       0.00000000
Si      -1.42560307       1.36368315      -1.29753761       0.00000000
Si       2.41533461       2.75574675      -0.03556456       0.00000000
Si       2.70832655       0.00676035      -2.65867714       0.00000000
Si      -0.04486266      -2.69623937      -2.70080612       0.00000000
Si      -0.11826540       2.70995555      -2.72087866       0.00000000
Si      -2.75934684      -2.68473863       0.06899934       0.00000000
Si      -2.76778506       0.01772352      -2.68651028       0.00000000
