10
Lattice="16.290000149 0.0 0.0 0.0 16.290000149 0.0 0.0 0.0 29.1751946751" Properties=species:S:1:pos:R:3:initial_magmoms:R:1 pbc="T T T"
Si      -1.35552349      -1.35514882       1.33353980       0.00000000
Si      -1.37466424       1.34581465      -1.33657402       0.00000000
Si       1.30583899       1.31692922       1.44516409       0.00000000
Si       1.35076681      -1.38323278      -1.34138793       0.00000000
Si       0.03961728      -2.80430724       2.52768052       0.00000000
Si       2.67340079       2.67343337       0.06681120       0.00000000
Si      -0.01047447       2.69138495      -2.68875677       0.00000000
Si       2.71301807      -0.02138877      -2.68201730       0.00000000
Si      -2.72424188      -0.02417436      -2.68796904       0.00000000
Si      -2.72451881       2.69558777       0.03670239       0.00000000
