10
Lattice="16.290000149 0.0 0.0 0.0 16.290000149 0.0 0.0 0.0 29.1751946751" Properties=species:S:1:pos:R:3:initial_magmoms:R:1 pbc="T T T"
Si      -1.33478144      -1.37608147      -1.34596843       0.00000000
Si       1.34277005      -1.35762490       1.36408623       0.00000000
Si       1.32980321       1.35742942      -1.38436299       0.00000000
Si      -1.38815073       1.36111096       1.32280333       0.00000000
Si      -2.66512385       0.03243339      -2.65637230       0.00000000
Si      -0.03596180       2.71399547       2.68376781       0.00000000
Si       2.68897566       2.71254566      -0.03194684       0.00000000
Si       2.69013225       0.00412137       2.71495609       0.00000000
Si       2.70189363      -2.71318097       0.00997792       0.00000000
Si      -2.72046098      -2.70690932       0.02080191       0.00000000
