10
Lattice="16.290000149 0.0 0.0 0.0 16.290000149 0.0 0.0 0.0 29.1751946751" Properties=species:S:1:pos:R:3:initial_magmoms:R:1 pbc="T T T"
Si       1.36071023       1.34982199      -1.35227027       0.00000000
Si      -1.33752234       1.38702835       1.34876925       0.00000000
Si       1.36698188      -1.34363179       1.36309427       0.00000000
Si      -1.34908243      -1.37764531      -1.35107409       0.00000000
Si      -2.69634689      -0.00816129       2.64067605       0.00000000
Si       2.66770581      -2.69975801      -0.05560792       0.00000000
Si      -0.02926987       2.69874803      -2.68201730       0.00000000
Si      -2.69255132      -0.02003670      -2.71904062       0.00000000
Si       2.67821286      -0.01306458      -2.74211820       0.00000000
Si       2.72498145       0.03868875       2.71168847       0.00000000
