10
Lattice="16.290000149 0.0 0.0 0.0 16.290000149 0.0 0.0 0.0 29.1751946751" Properties=species:S:1:pos:R:3:initial_magmoms:R:1 pbc="T T T"
Si      -1.35917245      -1.35511624      -1.35241615       0.00000000
Si       1.34610787      -1.36210465       1.36414458       0.00000000
Si      -1.36660069       1.35358498       1.35346646       0.00000000
Si       1.35690814       1.34359921      -1.37421002       0.00000000
Si       2.69167817       2.69526197       0.01922645       0.00000000
Si       0.02067201      -2.71425611      -2.68718131       0.00000000
Si      -2.68897566      -2.71254566       0.03194684       0.00000000
Si       2.70806591      -0.00423540       2.70827497       0.00000000
Si      -0.01941768       2.69096141      -2.73324894       0.00000000
Si      -2.71758253       2.71252937      -0.00615597       0.00000000
