10
Lattice="16.290000149 0.0 0.0 0.0 16.290000149 0.0 0.0 0.0 29.1751946751" Properties=species:S:1:pos:R:3:initial_magmoms:R:1 pbc="T T T"
Si      -1.36919080       1.34775316      -1.34007504       0.00000000
Si      -1.37593486      -1.34167699       1.34112535       0.00000000
Si       1.35612622      -1.35412255      -1.36373612       0.00000000
Si       1.35615880       1.36438525       1.35699665       0.00000000
Si       0.01153332       2.69024465      -2.67475267       0.00000000
Si      -0.01479132      -2.73621503       2.64376862       0.00000000
Si       2.71888247      -2.69376329       0.00011670       0.00000000
Si       2.71192664       0.01622484      -2.70967538       0.00000000
Si      -2.72663651       0.02634093       2.69540871       0.00000000
Si      -2.72950355      -2.69741225      -0.01741759       0.00000000
