10
Lattice="16.290000149 0.0 0.0 0.0 16.290000149 0.0 0.0 0.0 29.1751946751" Properties=species:S:1:pos:R:3:initial_magmoms:R:1 pbc="T T T"
Si      -1.37614989       1.23409783      -1.44884017       0.00000000
Si      -1.31647473      -1.49400478       1.27055055       0.00000000
Si       1.19690776      -1.40330206      -1.47862804       0.00000000
Si       1.43757622       1.40602249       1.31644313       0.00000000
Si      -0.07690509       2.73636165       2.55630138       0.00000000
Si       2.55575441      -2.76267000      -0.17688921       0.00000000
Si       0.09884772      -2.67134825       2.68531409       0.00000000
Si       2.73623132       2.64323171      -0.18759650       0.00000000
Si      -2.76956067       2.61187346      -0.18800495       0.00000000
Si      -0.04111596       2.63347400      -2.79051985       0.00000000
