10
Lattice="16.290000149 0.0 0.0 0.0 16.290000149 0.0 0.0 0.0 29.1751946751" Properties=species:S:1:pos:R:3:initial_magmoms:R:1 pbc="T T T"
Si      -1.17387370       0.14968881      -2.01580173       0.00000000
Si       0.23257233       1.84977839       1.43792864       0.00000000
Si       2.31884894      -0.17241336      -0.57950689       0.00000000
Si      -1.15279444      -2.06526251       0.59800397       0.00000000
H       -2.69778692       0.59989555       0.04352939       0.00000000
H       -2.20604069      -0.93895561      -1.74193417       0.00000000
Si      -3.15755589      -0.69449158       0.68313718       0.00000000
Si       1.67005082       0.66406186       2.88525170       0.00000000
Si       1.92186164      -1.98519716      -2.05270835       0.00000000
Si       0.35360378      -0.91709443      -3.41329355       0.00000000
