10
Lattice="16.290000149 0.0 0.0 0.0 16.290000149 0.0 0.0 0.0 29.1751946751" Properties=species:S:1:pos:R:3:initial_magmoms:R:1 pbc="T T T"
Si      -0.97174738       1.86272894      -0.89664126       0.00000000
Si      -1.76537990      -1.48356289       0.33230547       0.00000000
Si       0.38540511       0.64454644       2.22355829       0.00000000
Si       1.75225016      -0.97345783      -1.26570747       0.00000000
H       -0.39519540      -1.22999275      -2.57488598       0.00000000
Si       1.87095539      -1.22460076       2.57366062       0.00000000
Si       2.49606785      -2.29431620       0.52518268       0.00000000
Si      -2.45928503       0.84748726      -2.36640004       0.00000000
Si      -1.07606854      -3.53307786      -0.43392267       0.00000000
Si      -3.58321359      -0.59486194      -0.81710968       0.00000000
