10
Lattice="16.290000149 0.0 0.0 0.0 16.290000149 0.0 0.0 0.0 29.1751946751" Properties=species:S:1:pos:R:3:initial_magmoms:R:1 pbc="T T T"
Si       1.45929161       1.17863038      -1.41658699       0.00000000
Si      -1.39515706      -1.32216157      -1.36436339       0.00000000
Si      -1.33037173       1.44010117       1.31408578       0.00000000
Si       1.38797317      -1.36029646       1.35596385       0.00000000
Si       0.14066415      -2.59512734      -2.56293874       0.00000000
Si       0.05641227       2.34937640      -2.87695136       0.00000000
H       -0.84289348       3.09200493      -1.89791935       0.00000000
Si      -2.67180437       0.02194263       2.67397953       0.00000000
Si       2.67945253       2.66851379      -0.01846206       0.00000000
Si      -2.61234587      -2.75634948       0.07775773       0.00000000
