10
Lattice="16.290000149 0.0 0.0 0.0 16.290000149 0.0 0.0 0.0 29.1751946751" Properties=species:S:1:pos:R:3:initial_magmoms:R:1 pbc="T T T"
Si      -0.11844459       2.30640827       0.22803332       0.00000000
Si       1.59363442       0.08928549      -1.79888415       0.00000000
Si       0.28658997      -0.87882922       2.24392257       0.00000000
Si      -2.12866319      -0.96322771      -0.68445007       0.00000000
H        1.12676302      -2.75341728       0.00297587       0.00000000
H        2.54267354      -1.82461034       0.58502100       0.00000000
Si      -1.86355973       1.98664045       1.72229927       0.00000000
Si      -1.91040977      -0.15763833       2.70346106       0.00000000
Si       3.18228411      -0.99023653      -0.48707988       0.00000000
Si      -1.04873392      -2.38110932      -2.18495950       0.00000000
