10
Lattice="16.290000149 0.0 0.0 0.0 16.290000149 0.0 0.0 0.0 29.1751946751" Properties=species:S:1:pos:R:3:initial_magmoms:R:1 pbc="T T T"
Si       1.34534224      -1.38085444       1.33724505       0.00000000
Si      -1.36195804      -1.35786925      -1.34413039       0.00000000
Si       1.36630747       1.36112725      -1.33925814       0.00000000
Si      -1.36875097       1.36363591       1.33925814       0.00000000
Si       2.71414208      -0.03212388       2.66039848       0.00000000
Si      -0.01638774       2.69949737      -2.68904852       0.00000000
Si       2.73637794      -0.01803303      -2.66060270       0.00000000
Si       0.01176138      -2.72060921      -2.67720339       0.00000000
Si      -2.70690932      -2.70418889       0.03862796       0.00000000
Si      -0.02093265       2.72655506       2.68721048       0.00000000
