10
Lattice="16.290000149 0.0 0.0 0.0 16.290000149 0.0 0.0 0.0 29.1751946751" Properties=species:S:1:pos:R:3:initial_magmoms:R:1 pbc="T T T"
Si      -1.34597755      -1.32996611       1.34691662       0.00000000
Si       1.31535235      -1.32309010      -1.40068651       0.00000000
Si      -1.20286990       1.39716073      -1.44132755       0.00000000
Si       1.42824205       1.40382334       1.24270283       0.00000000
Si       2.30417165       0.46398807      -2.55313587       0.00000000
Si       0.67118059       2.19939437      -2.63717181       0.00000000
Si      -2.64740195      -2.65714337      -0.07846085       0.00000000
Si      -2.70189200       0.06532290       2.63611013       0.00000000
Si       2.69812901      -2.64748365      -0.03512693       0.00000000
Si       0.05036868       2.75252133       2.59319342       0.00000000
