10
Lattice="16.290000149 0.0 0.0 0.0 16.290000149 0.0 0.0 0.0 29.1751946751" Properties=species:S:1:pos:R:3:initial_magmoms:R:1 pbc="T T T"
H        1.19392669      -1.97819246       0.24606359       0.00000000
H       -1.97661233      -0.61913404      -1.09803763       0.00000000
Si       1.87870943       0.70628554       1.27947816       0.00000000
Si      -0.76716127      -1.87304051       1.27828198       0.00000000
Si       0.64594738      -0.33231600      -2.32219962       0.00000000
Si      -1.78137668       1.54310284       0.62367814       0.00000000
H       -2.63608040      -0.20931021      -1.14425114       0.00000000
H        2.83022463       0.46182150      -1.14559319       0.00000000
H       -0.43181532       2.17868978      -2.18382167       0.00000000
H        2.33847839       2.00067266       0.63987037       0.00000000
