10
Lattice="16.290000149 0.0 0.0 0.0 16.290000149 0.0 0.0 0.0 29.1751946751" Properties=species:S:1:pos:R:3:initial_magmoms:R:1 pbc="T T T"
Si       1.34123716      -1.35583300      -1.34360991       0.00000000
Si       1.30424257       1.18398979       1.55313099       0.00000000
Si      -1.32144481      -1.40328577       1.34256485       0.00000000
Si      -1.21515256       1.41509602      -1.44951587       0.00000000
Si      -0.16189002      -2.64134207      -2.62918569       0.00000000
Si       0.40206978       2.90190714      -2.38857786       0.00000000
Si      -2.70313004      -0.04673601       2.66705451       0.00000000
Si      -2.69687468       2.71384626      -0.11019938       0.00000000
Si      -2.73442313      -2.69912270      -0.00137765       0.00000000
Si      -0.01614339       2.67300959       2.76126704       0.00000000
