10
Lattice="16.290000149 0.0 0.0 0.0 16.290000149 0.0 0.0 0.0 29.1751946751" Properties=species:S:1:pos:R:3:initial_magmoms:R:1 pbc="T T T"
Si      -1.33946155      -1.34605900       1.37517280       0.00000000
Si       1.32341590      -1.37005417      -1.37415167       0.00000000
Si      -1.35904213       1.32056515      -1.39970914       0.00000000
Si       1.34250778       1.33252201       1.40679871       0.00000000
Si      -0.11899845       2.66727575       2.69660489       0.00000000
Si       2.69482214       2.67913487       0.01333306       0.00000000
Si       2.62831007      -2.75178828      -0.00099196       0.00000000
Si      -2.73212624       0.00516393       2.69053645       0.00000000
Si       2.67802715      -0.02148651      -2.74652365       0.00000000
Si      -0.04926096      -2.75284713      -2.68481811       0.00000000
