10
Lattice="16.290000149 0.0 0.0 0.0 16.290000149 0.0 0.0 0.0 29.1751946751" Properties=species:S:1:pos:R:3:initial_magmoms:R:1 pbc="T T T"
Si      -1.37067319       1.36055547      -1.31332139       0.00000000
Si      -1.38740302      -1.35918874       1.30383945       0.00000000
Si       1.32341590      -1.35180937      -1.38494649       0.00000000
Si       1.35516511       1.37165711       1.33867463       0.00000000
Si      -0.00474039      -2.70495452       2.63936316       0.00000000
Si      -0.02469564       2.69052158      -2.66023801       0.00000000
Si       2.67343337       0.04303794      -2.69536495       0.00000000
Si      -2.70475904       0.01167993       2.69260789       0.00000000
Si       2.73769742       0.01251072       2.66077775       0.00000000
Si      -0.00439830       2.72916147       2.67825370       0.00000000
