10
Lattice="16.290000149 0.0 0.0 0.0 16.290000149 0.0 0.0 0.0 29.1751946751" Properties=species:S:1:pos:R:3:initial_magmoms:R:1 pbc="T T T"
Si       0.97174738      -1.86272894       0.89664126       0.00000000
Si      -1.48753765      -1.01524168      -1.46975878       0.00000000
Si      -1.61166745       0.78548752       1.52274094       0.00000000
Si       1.66858472       1.52469514      -0.72430338       0.00000000
H        0.91132777       2.07835967       1.75465456       0.00000000
H        0.25185969       2.48818349       1.70844105       0.00000000
H       -0.89427214       0.86734477       2.84831591       0.00000000
Si      -1.94812112       2.73592181       0.14835586       0.00000000
Si       0.18091674       3.32179167      -0.84794786       0.00000000
Si      -0.06089202      -2.24526701      -2.75766858       0.00000000
