10
Lattice="16.290000149 0.0 0.0 0.0 16.290000149 0.0 0.0 0.0 29.1751946751" Properties=species:S:1:pos:R:3:initial_magmoms:R:1 pbc="T T T"
Si       1.37267686       1.38279295       1.31066645       0.00000000
Si       1.37073835      -1.33597712      -1.36907519       0.00000000
Si      -1.32366025       1.36164853      -1.39445760       0.00000000
Si      -1.36756180      -1.35650415       1.37835290       0.00000000
Si      -2.67340079      -2.67343337      -0.06681120       0.00000000
Si       2.67757103       0.00105885       2.68382616       0.00000000
Si      -2.68496669       2.71073747      -0.04274166       0.00000000
Si       2.70562241      -2.69913899      -0.00096278       0.00000000
Si      -2.69045642       0.03626154       2.74521077       0.00000000
Si       0.04926096       2.75284713       2.68481811       0.00000000
