10
Lattice="16.290000149 0.0 0.0 0.0 16.290000149 0.0 0.0 0.0 29.1751946751" Properties=species:S:1:pos:R:3:initial_magmoms:R:1 pbc="T T T"
Si      -1.34250778      -1.33252201      -1.40679871       0.00000000
Si      -1.46150623       1.33475374       1.28980618       0.00000000
Si       1.35231436       1.34661286      -1.39346565       0.00000000
Si       1.38001551      -1.37150398       1.35022801       0.00000000
Si      -2.68196933      -2.67858101      -0.03162591       0.00000000
Si       2.66225518      -2.72275949      -0.07407582       0.00000000
H        0.65808343       1.90254170       3.23999289       0.00000000
Si      -2.76508092       2.65711079      -0.15007720       0.00000000
Si       2.80326630      -0.01228266       2.64082192       0.00000000
Si      -0.25296741       2.96287410       2.45077470       0.00000000
