10
Lattice="16.290000149 0.0 0.0 0.0 16.290000149 0.0 0.0 0.0 29.1751946751" Properties=species:S:1:pos:R:3:initial_magmoms:R:1 pbc="T T T"
Si      -1.40287934       1.17074602      -1.46036437       0.00000000
Si      -1.45929161      -1.17863038       1.41658699       0.00000000
Si       1.46065671      -1.28058949      -1.34398452       0.00000000
Si       1.22016092       1.48988341       1.39812493       0.00000000
H       -2.30218509       1.91337455      -0.48133236       0.00000000
Si       2.64968174       0.41485743      -2.53261112       0.00000000
Si      -0.07131844      -2.53892684       2.77255084       0.00000000
Si      -2.85444867      -2.50079195       0.05222360       0.00000000
Si       2.60589422       0.15016122       2.76985214       0.00000000
Si      -0.25146955       2.81110017      -2.64111367       0.00000000
