10
Lattice="16.290000149 0.0 0.0 0.0 16.290000149 0.0 0.0 0.0 29.1751946751" Properties=species:S:1:pos:R:3:initial_magmoms:R:1 pbc="T T T"
Si      -0.91105084       1.06033240      -0.78921819       0.00000000
Si       0.85948110      -0.87177565       1.04091260       0.00000000
Si      -2.11958966      -0.56778796      -1.95018671       0.00000000
Si       2.14518288      -1.91482436      -0.59917097       0.00000000
Si      -2.01508931       1.93554524       1.08210797       0.00000000
Si       2.10314979       0.83336383       1.99459136       0.00000000
Si      -1.00411561      -1.70820200       2.27715312       0.00000000
Si       0.69209695       2.19105389      -2.05772648       0.00000000
Si      -2.64077192       0.01736514       2.48934431       0.00000000
H       -0.45649467       0.81150265       3.66595074       0.00000000
