10
Lattice="16.290000149 0.0 0.0 0.0 16.290000149 0.0 0.0 0.0 29.1751946751" Properties=species:S:1:pos:R:3:initial_magmoms:R:1 pbc="T T T"
Si       1.34669757       1.34772058      -1.36825828       0.00000000
Si       1.35098184      -1.35894439       1.35962242       0.00000000
Si      -1.33041148       1.34991973       1.39013968       0.00000000
Si      -1.36449602      -1.32999706      -1.37876135       0.00000000
Si       2.67750913       2.69351894       0.04606763       0.00000000
Si      -2.70521191      -2.68315850       0.00662277       0.00000000
Si      -2.69918461       2.70645320       0.05003546       0.00000000
Si       2.69187691       0.00395847       2.72394205       0.00000000
Si       2.69816485      -0.02156796      -2.72709297       0.00000000
Si      -2.67888727      -0.00301365       2.74701963       0.00000000
