10
Lattice="16.290000149 0.0 0.0 0.0 16.290000149 0.0 0.0 0.0 29.1751946751" Properties=species:S:1:pos:R:3:initial_magmoms:R:1 pbc="T T T"
Si      -1.37595115      -1.32146110       1.36329850       0.00000000
Si      -1.37275831       1.35143470      -1.34637688       0.00000000
Si       1.29011914      -1.36738261      -1.41280880       0.00000000
Si       1.40882437       1.32605488       1.35641315       0.00000000
Si       0.04339656      -2.69402393       2.61762764       0.00000000
Si      -0.00874773       2.70124040      -2.69575881       0.00000000
Si       0.04486266       2.69623937       2.70080612       0.00000000
Si       2.68022630      -0.00905724      -2.72645112       0.00000000
Si       2.60864804      -2.80717428      -0.13581053       0.00000000
Si      -2.72292239       2.71396289       0.01429585       0.00000000
