10
Lattice="16.290000149 0.0 0.0 0.0 16.290000149 0.0 0.0 0.0 29.1751946751" Properties=species:S:1:pos:R:3:initial_magmoms:R:1 pbc="T T T"
Si       1.81051949       1.32580076       0.60518106       0.00000000
Si      -0.73199116      -0.34484627       2.26198202       0.00000000
Si      -1.22046310       1.87167866      -0.95102382       0.00000000
Si       1.61617978      -1.52980369      -1.07615623       0.00000000
H        0.71881255      -2.51966555       0.99093549       0.00000000
H       -1.18381060      -2.94213041      -0.24664710       0.00000000
Si      -0.27298782      -2.86933040      -1.46144385       0.00000000
Si       0.47741103       2.87258514       1.76256104       0.00000000
Si      -1.46152252       1.84512596       2.66413290       0.00000000
Si      -1.16147701      -1.44843514      -3.05490546       0.00000000
