10
Lattice="16.290000149 0.0 0.0 0.0 16.290000149 0.0 0.0 0.0 29.1751946751" Properties=species:S:1:pos:R:3:initial_magmoms:R:1 pbc="T T T"
H        1.96108796      -0.10515195      -1.03221839       0.00000000
Si       1.02346813      -1.33920091       1.61881485       0.00000000
Si       0.76716127       1.87304051      -1.27828198       0.00000000
Si      -0.76362634      -2.04263570      -1.01077462       0.00000000
Si      -1.06927561       1.10941417       1.86899215       0.00000000
H       -1.20945106       1.25390647      -2.37631961       0.00000000
H       -3.01505097       0.04289157      -1.28265826       0.00000000
H       -1.86891914       1.66373030      -2.42253311       0.00000000
H        2.31915845      -0.79169401       2.54503976       0.00000000
Si      -1.01421541       3.41614335      -0.65460384       0.00000000
