10
Lattice="16.290000149 0.0 0.0 0.0 16.290000149 0.0 0.0 0.0 29.1751946751" Properties=species:S:1:pos:R:3:initial_magmoms:R:1 pbc="T T T"
Si       1.40151016       1.41313796       1.25981408       0.00000000
Si      -1.26126955       1.39059260      -1.42973041       0.00000000
Si       1.42558678      -1.27094581      -1.42649197       0.00000000
Si      -1.30398193      -1.58381155       1.27775683       0.00000000
Si       0.28466775      -2.66333357       2.58956110       0.00000000
Si      -2.52749126      -2.73064385      -0.34721399       0.00000000
Si      -2.58416417       2.78335830      -0.06287254       0.00000000
Si       2.87168947       0.12161332       2.53199845       0.00000000
Si      -2.56710854       0.07366338      -2.87489451       0.00000000
Si       2.87218185      -2.61167798      -0.15103998       0.00000000
