10
Lattice="16.290000149 0.0 0.0 0.0 16.290000149 0.0 0.0 0.0 29.1751946751" Properties=species:S:1:pos:R:3:initial_magmoms:R:1 pbc="T T T"
Si       1.27071775      -0.24781977      -1.93139789       0.00000000
Si      -0.33502014       2.12206574       0.93089294       0.00000000
Si      -2.05706864      -0.69528979      -0.90889484       0.00000000
Si       1.23142627      -1.32457249       1.50672375       0.00000000
H        2.58098762      -0.68898556      -1.30077605       0.00000000
H       -2.51656067       0.28893573       1.71611413       0.00000000
H        0.37672254      -3.07698555      -0.26120552       0.00000000
H       -1.24584292       2.04926573       2.14568969       0.00000000
H       -3.18951687      -0.63803044       0.09458598       0.00000000
Si       0.30577959      -2.24337737      -2.81759443       0.00000000
