10
Lattice="16.290000149 0.0 0.0 0.0 16.290000149 0.0 0.0 0.0 29.1751946751" Properties=species:S:1:pos:R:3:initial_magmoms:R:1 pbc="T T T"
Si       1.31162194       1.35249355      -1.39177349       0.00000000
Si      -1.36557442       1.48400272       1.23624052       0.00000000
Si       1.59487246      -1.30795669       1.20732791       0.00000000
Si      -1.47647674      -1.37342620      -1.30334347       0.00000000
Si      -1.70181632      -2.39000366       2.10752854       0.00000000
Si      -2.24575571      -0.01023012       2.85041652       0.00000000
Si       2.36781668      -0.11194488      -2.87308565       0.00000000
Si       3.46669122       0.15641658       1.36265664       0.00000000
H        2.06899292       0.99385291       2.99293735       0.00000000
Si       3.13023756       2.10685088      -0.01172843       0.00000000
