10
Lattice="16.290000149 0.0 0.0 0.0 16.290000149 0.0 0.0 0.0 29.1751946751" Properties=species:S:1:pos:R:3:initial_magmoms:R:1 pbc="T T T"
Si       1.13347450      -0.06033816      -1.00167196       0.00000000
H        0.67820158       0.92419687       1.61980681       0.00000000
H       -0.91919584       1.77334571       0.45437448       0.00000000
Si      -2.27540351       1.19724985       0.17721013       0.00000000
Si      -2.72616410      -1.00986598       0.79484900       0.00000000
Si       0.14507874       0.66816694       3.00650381       0.00000000
Si       1.36085032      -2.19574541      -1.91074185       0.00000000
Si       3.18956574       0.63381133      -0.08875094       0.00000000
Si       0.91150696       1.45323091      -2.83994262       0.00000000
Si      -1.65198521      -0.92642860       2.89120344       0.00000000
