10
Lattice="16.290000149 0.0 0.0 0.0 16.290000149 0.0 0.0 0.0 29.1751946751" Properties=species:S:1:pos:R:3:initial_magmoms:R:1 pbc="T T T"
Si       1.15310395       0.14933043      -2.04789444       0.00000000
Si       1.56747268       0.77517595       1.58756822       0.00000000
Si      -0.91254952      -1.84401173       1.15983069       0.00000000
Si      -1.93210805       1.48493125      -0.32568270       0.00000000
Si      -1.94427668      -0.35821710       2.63180679       0.00000000
H       -2.82512586       0.49422231       1.74114644       0.00000000
Si      -0.04671972       0.94345165       3.26388738       0.00000000
H        1.84485881      -2.85886245      -0.16282676       0.00000000
Si       2.39967992       2.70706082       0.57046258       0.00000000
Si       2.68263722       1.98202061      -1.63585317       0.00000000
