10
Lattice="16.290000149 0.0 0.0 0.0 16.290000149 0.0 0.0 0.0 29.1751946751" Properties=species:S:1:pos:R:3:initial_magmoms:R:1 pbc="T T T"
Si       1.31206177       1.35998695       1.34535283       0.00000000
Si      -1.37499004       1.26444610      -1.41731637       0.00000000
Si       1.28736613      -1.44881632      -1.32836704       0.00000000
Si      -1.42746013      -1.39069360       1.28110906       0.00000000
Si      -2.18481482      -0.59502484      -2.59831891       0.00000000
Si      -0.55169344      -2.33038226      -2.51446707       0.00000000
Si       2.62110989       2.64955223      -0.12483482       0.00000000
Si       2.62894538      -0.03157002       2.68691581       0.00000000
Si      -0.10689498       2.69066819       2.64717920       0.00000000
Si       2.53664624      -2.81919630       0.08512155       0.00000000
