10
Lattice="16.290000149 0.0 0.0 0.0 16.290000149 0.0 0.0 0.0 29.1751946751" Properties=species:S:1:pos:R:3:initial_magmoms:R:1 pbc="T T T"
Si       1.34671060       1.35690814       1.36151881       0.00000000
Si      -1.35233065       1.36765954      -1.35582965       0.00000000
Si      -1.35948196      -1.34465806       1.37263456       0.00000000
Si       1.37793853      -1.34860024      -1.35034471       0.00000000
Si      -0.05049900      -2.75255391      -2.59263033       0.00000000
Si       2.67752216      -2.69856884       0.06800738       0.00000000
Si      -0.02725317       2.71956665       2.69368737       0.00000000
Si       2.69120576      -0.00400734       2.72916441       0.00000000
Si      -2.67252113       0.02666673      -2.75007427       0.00000000
Si       2.69850368       2.73276155       0.01572543       0.00000000
