10
Lattice="16.290000149 0.0 0.0 0.0 16.290000149 0.0 0.0 0.0 29.1751946751" Properties=species:S:1:pos:R:3:initial_magmoms:R:1 pbc="T T T"
Si      -1.41123529      -1.28474181       1.38275835       0.00000000
Si       1.39955536       1.36969579       1.31145418       0.00000000
Si       1.32343219      -1.39487687      -1.36367777       0.00000000
Si      -1.34750881       1.33692031      -1.40583593       0.00000000
Si      -0.02665044       2.69350265       2.62077856       0.00000000
Si      -2.64051128      -2.71365338      -0.04647609       0.00000000
Si       2.58636332      -2.78580180       0.06853253       0.00000000
Si       2.73505844       2.68465718      -0.10004174       0.00000000
Si       2.68643279      -0.04706181      -2.75667662       0.00000000
Si      -2.72201015       2.72380205      -0.09712422       0.00000000
