10
Lattice="16.290000149 0.0 0.0 0.0 16.290000149 0.0 0.0 0.0 29.1751946751" Properties=species:S:1:pos:R:3:initial_magmoms:R:1 pbc="T T T"
Si       1.41895675      -1.33068124      -1.30182636       0.00000000
Si       1.37327959       1.32652729       1.36329850       0.00000000
Si      -1.35179308      -1.37585341       1.34579338       0.00000000
Si      -1.35166276       1.31895244      -1.40735304       0.00000000
Si       0.10689498      -2.69066819      -2.64717920       0.00000000
Si       0.00403992       2.70638804       2.68443884       0.00000000
Si       2.75351502       2.64448604       0.00052515       0.00000000
Si      -2.72575685      -0.01319490       2.67796194       0.00000000
Si      -2.71450046       2.69270444      -0.05802946       0.00000000
Si       0.01554066       2.66914910      -2.75773568       0.00000000
