10
Lattice="16.290000149 0.0 0.0 0.0 16.290000149 0.0 0.0 0.0 29.1751946751" Properties=species:S:1:pos:R:3:initial_magmoms:R:1 pbc="T T T"
H        1.29593467       0.54955945       0.92231543       0.00000000
Si       1.22924341      -1.85194496      -0.66615722       0.00000000
Si      -1.02146446       1.33833754      -1.61758949       0.00000000
Si      -1.78686641      -0.58731967       1.44154637       0.00000000
H        0.95096134       1.24134688      -2.67119330       0.00000000
Si      -2.09461709       2.44538966       0.25140265       0.00000000
Si      -1.79344757      -0.70309270      -2.62541742       0.00000000
Si       2.47757870       1.08765073       1.97378945       0.00000000
Si      -0.30646377      -2.57225618      -2.27467323       0.00000000
Si      -2.85865068      -2.34712838       0.37805217       0.00000000
