10
Lattice="16.290000149 0.0 0.0 0.0 16.290000149 0.0 0.0 0.0 29.1751946751" Properties=species:S:1:pos:R:3:initial_magmoms:R:1 pbc="T T T"
Si      -1.37950237       1.34776945       1.32023591       0.00000000
Si      -1.36994014      -1.36207207      -1.32615847       0.00000000
Si       1.35307999       1.39145923      -1.32534157       0.00000000
Si       1.35633799      -1.33221250       1.38380866       0.00000000
Si       0.03966615       2.66027105       2.63545369       0.00000000
Si       0.01614339      -2.67626783      -2.68347606       0.00000000
Si       2.70563870      -2.67957470       0.02115202       0.00000000
Si      -2.72510525       0.00869886      -2.66451218       0.00000000
Si      -2.75261907      -0.01124010       2.64837830       0.00000000
Si       2.69742854       0.06041961      -2.71145507       0.00000000
