10
Lattice="16.290000149 0.0 0.0 0.0 16.290000149 0.0 0.0 0.0 29.1751946751" Properties=species:S:1:pos:R:3:initial_magmoms:R:1 pbc="T T T"
Si       1.43552043      -1.21850830       1.38016176       0.00000000
Si      -1.38812304       1.23090499       1.43095577       0.00000000
Si      -1.35357635      -1.42884478      -1.30398533       0.00000000
Si       1.37593160       1.42270345      -1.29505772       0.00000000
H       -1.18244061      -1.44814843       3.05624752       0.00000000
Si      -0.04651284      -2.41613282       2.76872597       0.00000000
Si       2.58054454      -2.64906353      -0.07996921       0.00000000
Si       0.02203548       2.68482008       2.56665858       0.00000000
Si       2.57235067       0.01884753      -2.77342318       0.00000000
Si       0.01201713       2.65857689      -2.74544417       0.00000000
