10
Lattice="16.290000149 0.0 0.0 0.0 16.290000149 0.0 0.0 0.0 29.1751946751" Properties=species:S:1:pos:R:3:initial_magmoms:R:1 pbc="T T T"
Si      -1.33728684      -1.34925184       1.37009632       0.00000000
Si       1.35190711      -1.36085032      -1.36006005       0.00000000
Si      -1.40358062       1.33862425      -1.33228526       0.00000000
Si       1.34513047       1.34495454       1.38847669       0.00000000
Si       2.64978029       2.69244380      -0.03594384       0.00000000
Si      -2.71651806       0.04455739       2.66883011       0.00000000
Si      -0.05830191       2.69288363      -2.70894600       0.00000000
Si       2.71557560      -0.01093059      -2.70973373       0.00000000
Si      -0.07133391       2.69987204       2.72566339       0.00000000
Si      -2.72009746      -2.71006958       0.01318719       0.00000000
