10
Lattice="16.290000149 0.0 0.0 0.0 16.290000149 0.0 0.0 0.0 29.1751946751" Properties=species:S:1:pos:R:3:initial_magmoms:R:1 pbc="T T T"
Si       1.39414708       1.43558884      -1.17558529       0.00000000
Si       1.70189777      -1.59712048       0.01455842       0.00000000
Si      -0.95690719       1.27102726       1.75418776       0.00000000
Si      -1.59435118      -0.81329455      -1.56125219       0.00000000
Si      -2.07288623       1.21624399      -2.61961155       0.00000000
Si      -0.17394462       2.71497287      -2.29947214       0.00000000
Si       0.63011350      -3.35692920      -1.04893577       0.00000000
Si      -2.40904667       2.68781744       0.53746544       0.00000000
Si      -0.29709702      -2.31298454      -2.88303439       0.00000000
Si       2.35471952      -2.02059533       2.14651535       0.00000000
