10
Lattice="16.290000149 0.0 0.0 0.0 16.290000149 0.0 0.0 0.0 29.1751946751" Properties=species:S:1:pos:R:3:initial_magmoms:R:1 pbc="T T T"
Si       1.30723993      -1.42728094       1.30118451       0.00000000
Si       1.37327959       1.33146316      -1.35556707       0.00000000
Si      -1.35073423      -1.38699577      -1.32294920       0.00000000
Si      -1.29823156       1.35832537       1.41680580       0.00000000
Si       2.65913075      -0.08532702       2.61307631       0.00000000
Si       0.00534312       2.68850162      -2.68157967       0.00000000
Si      -2.67362885       2.69920415       0.06336852       0.00000000
Si      -2.69054276      -0.02823057      -2.68569337       0.00000000
Si      -2.62505370      -0.04015485       2.76312434       0.00000000
Si       0.03588687      -2.73807210      -2.65657653       0.00000000
