10
Lattice="16.290000149 0.0 0.0 0.0 16.290000149 0.0 0.0 0.0 29.1751946751" Properties=species:S:1:pos:R:3:initial_magmoms:R:1 pbc="T T T"
Si      -1.36014985      -1.36430380      -1.32986372       0.00000000
Si      -1.34930071       1.34736220       1.36265664       0.00000000
Si       1.33625242      -1.37425699       1.35445841       0.00000000
Si       1.33768594       1.35886294      -1.37899475       0.00000000
Si      -2.70563870       2.67957470      -0.02115202       0.00000000
Si       2.67992331      -0.01169622       2.70970456       0.00000000
Si       0.00548973      -2.71072118      -2.67939153       0.00000000
Si      -2.68949531       0.00330687      -2.70462807       0.00000000
Si      -2.70474275      -0.03637557       2.69330810       0.00000000
Si       2.69038638       2.71086779      -0.01800110       0.00000000
