10
Lattice="16.290000149 0.0 0.0 0.0 16.290000149 0.0 0.0 0.0 29.1751946751" Properties=species:S:1:pos:R:3:initial_magmoms:R:1 pbc="T T T"
Si       1.35319402       1.39766572      -1.32027092       0.00000000
Si      -1.35164647       1.36923967       1.35892222       0.00000000
Si       1.37647243      -1.34721559       1.35903892       0.00000000
Si      -1.36220239      -1.36787131      -1.36334518       0.00000000
Si       2.73496070       0.04116483      -2.64476933       0.00000000
Si      -2.70856765      -2.69666291       0.01765099       0.00000000
Si       2.69024465       2.72258030       0.08443301       0.00000000
Si       0.01889640      -2.69060303       2.73257791       0.00000000
Si      -2.69847273       0.02153538       2.72726802       0.00000000
Si      -2.71721601       2.71717202      -0.01327471       0.00000000
