10
Lattice="16.290000149 0.0 0.0 0.0 16.290000149 0.0 0.0 0.0 29.1751946751" Properties=species:S:1:pos:R:3:initial_magmoms:R:1 pbc="T T T"
Si       1.38729714      -1.34912152       1.33103073       0.00000000
Si       1.37529141       1.34866540      -1.35040306       0.00000000
Si      -1.31450605      -1.36593280      -1.39442843       0.00000000
Si      -1.36871025       1.34061814       1.37934485       0.00000000
Si      -2.66332543      -2.71898021      -0.03807363       0.00000000
Si       0.02633279      -2.69998607       2.68417626       0.00000000
Si      -2.70001051       2.69869102      -0.00043763       0.00000000
Si       0.02976509       2.70951084      -2.70632023       0.00000000
Si       2.70530476      -2.71068860      -0.06077193       0.00000000
Si      -2.68246618      -0.01148445      -2.73736264       0.00000000
