10
Lattice="16.290000149 0.0 0.0 0.0 16.290000149 0.0 0.0 0.0 29.1751946751" Properties=species:S:1:pos:R:3:initial_magmoms:R:1 pbc="T T T"
Si      -1.36096435      -1.35086455       1.35314553       0.00000000
Si      -1.38729714       1.34912152      -1.33103073       0.00000000
Si       1.31800762      -1.36156708      -1.39180266       0.00000000
Si       1.37005417       1.36150192       1.35157007       0.00000000
Si      -0.01200573       2.69778692      -2.68143379       0.00000000
Si       0.01443294      -2.69174333       2.70658281       0.00000000
Si       2.68594409      -2.71860554      -0.06579006       0.00000000
Si       2.68775228      -0.01845657      -2.73418254       0.00000000
Si      -2.70195040       0.01228266       2.72481731       0.00000000
Si      -2.70180319      -0.01681128      -2.72545916       0.00000000
