10
Lattice="16.290000149 0.0 0.0 0.0 16.290000149 0.0 0.0 0.0 29.1751946751" Properties=species:S:1:pos:R:3:initial_magmoms:R:1 pbc="T T T"
Si      -0.34373529       0.88039306       2.13594518       0.00000000
Si      -1.85275946      -0.93274912      -1.10813224       0.00000000
Si       1.05560830       1.75940147      -1.18144951       0.00000000
Si       1.61112988      -1.76775824      -0.08726301       0.00000000
Si       2.13218183       0.34145469      -2.68484729       0.00000000
Si      -0.67043125      -2.38555649      -2.51904466       0.00000000
Si       1.27321012       2.57149055       2.20614070       0.00000000
Si       2.22788558      -2.17494308       2.06256956       0.00000000
Si       3.44075754      -0.95677687      -1.27472261       0.00000000
Si      -3.15188697      -2.16826418       0.39523636       0.00000000
