10
Lattice="16.290000149 0.0 0.0 0.0 16.290000149 0.0 0.0 0.0 29.1751946751" Properties=species:S:1:pos:R:3:initial_magmoms:R:1 pbc="T T T"
Si      -1.43381323       1.34673504      -1.26121449       0.00000000
Si      -1.38005623      -1.34254036       1.33552371       0.00000000
Si       1.34708527       1.38731506       1.33820783       0.00000000
Si       1.35444835      -1.32897079      -1.40035099       0.00000000
Si      -0.10018350       2.68706810      -2.58965738       0.00000000
Si      -0.01057221      -2.69057045       2.67571545       0.00000000
Si       2.70042590      -2.67465512      -0.03565209       0.00000000
Si       2.70656723       0.03142341       2.68785234       0.00000000
Si      -2.73046466       0.03313386       2.68531409       0.00000000
Si      -0.06784785      -2.78860368      -2.62497396       0.00000000
