10
Lattice="16.290000149 0.0 0.0 0.0 16.290000149 0.0 0.0 0.0 29.1751946751" Properties=species:S:1:pos:R:3:initial_magmoms:R:1 pbc="T T T"
Si       1.33086369       1.36044307       1.37813992       0.00000000
Si      -1.29518533      -1.31439124       1.46931240       0.00000000
Si      -1.38776140       1.36016614      -1.35645691       0.00000000
Si       1.40051484      -1.34933329      -1.36899933       0.00000000
Si      -0.10591758      -2.73429281      -2.53643249       0.00000000
Si       0.07189087       2.53874765      -2.77290678       0.00000000
Si      -2.68525991      -2.65930994       0.19369995       0.00000000
Si       2.67722894       2.68923467      -0.00285625       0.00000000
Si       2.69966027       0.01110978       2.74082574       0.00000000
Si       2.75937942      -2.68890887       0.01175760       0.00000000
