10
Lattice="16.290000149 0.0 0.0 0.0 16.290000149 0.0 0.0 0.0 29.1751946751" Properties=species:S:1:pos:R:3:initial_magmoms:R:1 pbc="T T T"
Si       1.92155213      -1.05521082       0.77480565       0.00000000
Si      -1.24608727      -1.31244947      -1.47670248       0.00000000
Si       1.15101883       1.42772403      -1.51390085       0.00000000
Si      -0.97213834       0.40782341       2.15178731       0.00000000
H       -1.87800896       1.97379742       0.65708373       0.00000000
Si       0.05207913       2.55851068       2.54145121       0.00000000
Si      -2.58507641      -2.59274575      -0.09747433       0.00000000
Si       2.58115052       2.74936432      -0.29662420       0.00000000
Si       3.66966462      -0.74416793      -0.71820577       0.00000000
Si       2.68646537       0.12025767      -2.70433632       0.00000000
