10
Lattice="16.290000149 0.0 0.0 0.0 16.290000149 0.0 0.0 0.0 29.1751946751" Properties=species:S:1:pos:R:3:initial_magmoms:R:1 pbc="T T T"
Si       1.33728684       1.34925184      -1.37009632       0.00000000
Si      -1.37923123       1.39380923       1.29873379       0.00000000
Si       1.37441175      -1.32864499       1.38357526       0.00000000
Si      -1.38281063      -1.36081774      -1.35690913       0.00000000
Si      -0.07476947      -2.69636969       2.60843746       0.00000000
Si      -2.69124649       0.05737338       2.66591259       0.00000000
Si       2.69134423      -2.68247432      -0.02293170       0.00000000
Si       2.68241731       2.69420638       0.01838037       0.00000000
Si      -0.06629378       2.68787609      -2.70238158       0.00000000
Si       2.68919395      -0.01159848      -2.73015637       0.00000000
