10
Lattice="16.290000149 0.0 0.0 0.0 16.290000149 0.0 0.0 0.0 29.1751946751" Properties=species:S:1:pos:R:3:initial_magmoms:R:1 pbc="T T T"
Si      -1.18863244      -1.15007140      -1.69289067       0.00000000
Si       0.57708955      -1.72447733       1.52854680       0.00000000
Si      -1.99712144       0.87765471       0.97979056       0.00000000
Si       1.43976853       1.41831981      -1.34643523       0.00000000
H        0.46376001       2.28097306       2.00474433       0.00000000
Si      -2.73580779       2.20061449      -0.80809454       0.00000000
Si      -2.47616147      -2.58770073      -0.40961973       0.00000000
Si      -2.62848926       0.47234322      -2.62022423       0.00000000
Si      -3.51486075      -0.96915727       0.90629825       0.00000000
H       -0.75021967       0.11576163       3.75583951       0.00000000
