10
Lattice="16.290000149 0.0 0.0 0.0 16.290000149 0.0 0.0 0.0 29.1751946751" Properties=species:S:1:pos:R:3:initial_magmoms:R:1 pbc="T T T"
Si       1.48390498      -1.26646606      -1.29324885       0.00000000
Si      -1.40541976       1.35420400      -1.35883469       0.00000000
Si      -1.39492900      -1.82332343       0.74373406       0.00000000
Si       1.05295303       1.71802487       1.37146755       0.00000000
H        2.95514123       0.07170858       1.62707143       0.00000000
Si      -2.47490714       2.54505188       0.37379259       0.00000000
Si       0.06097347      -2.53513127      -2.70305261       0.00000000
Si      -0.61504525       3.40268781       1.60632787       0.00000000
Si       2.78064731      -2.60561810       0.20539337       0.00000000
Si      -3.15084441      -0.84504376       2.00092238       0.00000000
