10
Lattice="16.290000149 0.0 0.0 0.0 16.290000149 0.0 0.0 0.0 29.1751946751" Properties=species:S:1:pos:R:3:initial_magmoms:R:1 pbc="T T T"
Si      -1.61419240       0.16827570       1.67631916       0.00000000
Si       0.83220724       1.93188487      -1.01710564       0.00000000
Si       1.76783969      -1.16152588       1.02603325       0.00000000
Si      -1.56747268      -0.77517595      -1.58756822       0.00000000
H       -0.21214467       3.04708362      -0.99612867       0.00000000
Si      -2.04903767       2.45778147       1.37102992       0.00000000
Si       1.11516454       1.20684466      -3.22342138       0.00000000
Si       0.61603894      -2.80163568       2.20602399       0.00000000
Si      -2.48002220      -2.61918767      -0.42773753       0.00000000
Si      -0.41436873      -0.62584552      -3.63546266       0.00000000
