10
Lattice="16.290000149 0.0 0.0 0.0 16.290000149 0.0 0.0 0.0 29.1751946751" Properties=species:S:1:pos:R:3:initial_magmoms:R:1 pbc="T T T"
Si      -0.65853955       0.82867231      -1.08085344       0.00000000
Si       2.15366834       0.25715394       1.31545118       0.00000000
Si       2.26098686      -1.47111733      -0.49667851       0.00000000
Si       0.39775293       1.23543361       2.57263949       0.00000000
Si      -2.06785262       2.07933707       0.20688131       0.00000000
Si       0.42997455      -2.66485995      -1.50243500       0.00000000
Si      -2.08867124      -0.49296798      -2.29813008       0.00000000
Si      -0.68067766      -2.29949153       2.13725806       0.00000000
Si      -1.36731745      -0.24941619       2.90310692       0.00000000
Si       0.83136016       2.17781012      -2.25054534       0.00000000
