10
Lattice="16.290000149 0.0 0.0 0.0 16.290000149 0.0 0.0 0.0 29.1751946751" Properties=species:S:1:pos:R:3:initial_magmoms:R:1 pbc="T T T"
Si       0.88084918      -0.85243942       0.89066034       0.00000000
H       -1.90418699      -0.42140601      -1.23720331       0.00000000
Si       0.89301781       0.99070894      -2.06682914       0.00000000
Si      -0.99458596      -0.34961598      -2.45217511       0.00000000
Si      -0.72050671       2.51995225      -0.99154817       0.00000000
Si      -1.45282366       2.17404061       1.26999622       0.00000000
Si       1.91257634      -2.33823404      -0.58131575       0.00000000
Si      -0.51448707      -2.08427294       2.31554768       0.00000000
Si       2.77840614       0.44922933       1.52274094       0.00000000
Si       2.82512586      -0.49422231      -1.74114644       0.00000000
