10
Lattice="16.290000149 0.0 0.0 0.0 16.290000149 0.0 0.0 0.0 29.1751946751" Properties=species:S:1:pos:R:3:initial_magmoms:R:1 pbc="T T T"
Si      -1.16452976       0.16684218      -2.01408039       0.00000000
Si       0.22257353       1.85904740       1.42681290       0.00000000
Si       2.31011099      -0.16837344      -0.59899592       0.00000000
Si      -1.16467637      -2.05584689       0.58134493       0.00000000
H       -2.73250743       0.59621401      -0.01070730       0.00000000
H       -2.19589854      -0.94451050      -1.80661558       0.00000000
Si      -3.17588866      -0.68742172       0.66038053       0.00000000
Si       1.65989563       0.67259782       2.87212286       0.00000000
Si       1.90706380      -1.98389396      -2.07362696       0.00000000
Si       0.34691999      -0.89981074      -3.42662661       0.00000000
