10
Lattice="16.290000149 0.0 0.0 0.0 16.290000149 0.0 0.0 0.0 29.1751946751" Properties=species:S:1:pos:R:3:initial_magmoms:R:1 pbc="T T T"
H       -1.13347450       0.06033816       1.00167196       0.00000000
Si       0.22737582      -2.13540725      -0.90906989       0.00000000
Si       2.05609124       0.69414949       0.91292102       0.00000000
Si      -0.22196754       1.51356907      -1.83827067       0.00000000
H       -0.45527292       0.98453503       2.62147877       0.00000000
H       -2.05267034       1.83368387       1.45604644       0.00000000
Si       2.34965333      -1.54176706      -1.91164628       0.00000000
H        2.43056576      -2.38837466       0.66770351       0.00000000
Si       3.31291362       0.45496341      -1.02375758       0.00000000
Si       1.72317251       2.81852841       1.83660768       0.00000000
