10
Lattice="16.290000149 0.0 0.0 0.0 16.290000149 0.0 0.0 0.0 29.1751946751" Properties=species:S:1:pos:R:3:initial_magmoms:R:1 pbc="T T T"
Si       1.38176668      -1.35650089      -1.32449841       0.00000000
Si       1.33705063       1.32491458       1.40470393       0.00000000
Si      -1.35319402      -1.39766572       1.32027092       0.00000000
Si      -1.32875902       1.39567834      -1.36927066       0.00000000
Si      -0.03121164      -2.65263104      -2.66827024       0.00000000
Si      -2.65856060       2.70997184       0.05033305       0.00000000
Si       2.70288569       0.04691520      -2.66727274       0.00000000
Si      -2.70484049      -0.02842605       2.67919314       0.00000000
Si      -2.75533950       0.03624525      -2.64852855       0.00000000
Si       2.68698665       2.71973386       0.09402582       0.00000000
