10
Lattice="16.290000149 0.0 0.0 0.0 16.290000149 0.0 0.0 0.0 29.1751946751" Properties=species:S:1:pos:R:3:initial_magmoms:R:1 pbc="T T T"
H       -1.04435191       1.11519875       0.02097696       0.00000000
Si      -0.83220724      -1.93188487       1.01710564       0.00000000
Si       0.28295730      -0.72504021      -2.20631575       0.00000000
Si       1.87147993       0.89488627       1.11504677       0.00000000
Si       2.54759149      -1.22656045      -2.09457475       0.00000000
Si      -2.39967992      -2.70706082      -0.57046258       0.00000000
Si       0.93807595       1.70844146       3.10876287       0.00000000
H        0.16962777       3.28041018      -1.73011822       0.00000000
Si      -2.88124491       0.52589659       2.38813556       0.00000000
Si      -1.30769605       2.21365952       2.82987718       0.00000000
