10
Lattice="16.290000149 0.0 0.0 0.0 16.290000149 0.0 0.0 0.0 29.1751946751" Properties=species:S:1:pos:R:3:initial_magmoms:R:1 pbc="T T T"
Si       1.32041854      -1.48892660      -1.20824401       0.00000000
Si       1.36070371       1.28248298       1.40969873       0.00000000
Si      -1.34993602      -1.39481927       1.31067812       0.00000000
Si      -1.38271150       1.32435153      -1.36579298       0.00000000
Si       2.69433344       2.62281604       0.08125583       0.00000000
Si      -2.69821046       2.64736507       0.03495772       0.00000000
Si      -2.67371030      -0.04328683       2.69565378       0.00000000
Si       0.02981070       2.70135013       2.69559543       0.00000000
Si       0.03466512      -2.75156452       2.64993625       0.00000000
Si      -2.68698665      -2.71973386      -0.09402582       0.00000000
