10
Lattice="16.290000149 0.0 0.0 0.0 16.290000149 0.0 0.0 0.0 29.1751946751" Properties=species:S:1:pos:R:3:initial_magmoms:R:1 pbc="T T T"
Si      -1.36928854      -1.34648254      -1.32096529       0.00000000
Si      -1.41266881       1.32035338       1.30774893       0.00000000
Si       1.34333857      -1.35307999       1.35495439       0.00000000
Si       1.37311669       1.35900955      -1.32814239       0.00000000
Si       0.01093059       2.71244792       2.48773967       0.00000000
Si       0.02471193      -2.70827768      -2.62069104       0.00000000
Si      -2.71057457       0.03903084      -2.65552622       0.00000000
Si       0.01225008       2.75397114      -2.63177761       0.00000000
Si       2.68780115      -0.03013650       2.71300135       0.00000000
Si       2.75261907       0.01124010      -2.64837830       0.00000000
