10
Lattice="16.290000149 0.0 0.0 0.0 16.290000149 0.0 0.0 0.0 29.1751946751" Properties=species:S:1:pos:R:3:initial_magmoms:R:1 pbc="T T T"
H       -1.18164403      -0.53809128      -1.05147402       0.00000000
Si      -1.53701038       1.27208611       1.19840030       0.00000000
Si       1.14008824      -1.50081400       1.38346789       0.00000000
Si       1.66961750       0.78374449      -1.44694378       0.00000000
Si      -2.47757870      -1.08765073      -1.97378945       0.00000000
Si       3.08372961      -1.16567983      -1.45120336       0.00000000
Si      -0.14175558       2.59364495       2.56344347       0.00000000
Si       2.64652067      -0.11585448       2.55090105       0.00000000
Si       2.77796142       2.49212567      -0.19885813       0.00000000
Si       2.40340707      -2.92798092       0.05671658       0.00000000
