10
Lattice="16.290000149 0.0 0.0 0.0 16.290000149 0.0 0.0 0.0 29.1751946751" Properties=species:S:1:pos:R:3:initial_magmoms:R:1 pbc="T T T"
Si       1.29958363      -1.34996860       1.41835209       0.00000000
Si      -1.37793853       1.34860024       1.35034471       0.00000000
Si      -1.42843753      -1.40395366      -1.24228562       0.00000000
Si       1.42746013       1.39069360      -1.28110906       0.00000000
Si      -2.63130743      -0.00676035      -2.68360151       0.00000000
Si       2.71482626      -0.05812272      -2.60947609       0.00000000
Si       0.05247009       2.65513970      -2.69842543       0.00000000
Si      -0.11293857      -2.72696720      -2.64303632       0.00000000
Si       2.63047664      -2.76883576       0.13245538       0.00000000
Si      -0.03122793       2.70550838       2.71186352       0.00000000
