10
Lattice="16.290000149 0.0 0.0 0.0 16.290000149 0.0 0.0 0.0 29.1751946751" Properties=species:S:1:pos:R:3:initial_magmoms:R:1 pbc="T T T"
Si       1.33089301      -1.41886716      -1.28589671       0.00000000
Si      -1.34801380      -1.37305153       1.33844123       0.00000000
Si       1.38556225       1.34988715       1.32364941       0.00000000
Si      -1.29958363       1.34996860      -1.41835209       0.00000000
Si       2.66452274      -0.07853409      -2.61433960       0.00000000
Si       0.01368360       2.69456150       2.66115703       0.00000000
Si      -2.67752216       2.69856884      -0.06800738       0.00000000
Si      -2.70778898      -0.01581759       2.67799112       0.00000000
Si      -2.72802117      -0.05398506      -2.66063771       0.00000000
Si       0.03424158      -2.73246834       2.66063188       0.00000000
