10
Lattice="16.290000149 0.0 0.0 0.0 16.290000149 0.0 0.0 0.0 29.1751946751" Properties=species:S:1:pos:R:3:initial_magmoms:R:1 pbc="T T T"
Si      -1.37868787      -1.36379881      -1.30459801       0.00000000
Si      -1.38608353       1.31419576       1.35731758       0.00000000
Si       1.32934546      -1.36761067       1.37476435       0.00000000
Si       1.32484942       1.38714238      -1.38243742       0.00000000
Si      -2.69557148       0.02775816      -2.64616098       0.00000000
Si      -0.01614339       2.67626783       2.68347606       0.00000000
Si      -0.05128092      -2.72241740      -2.67072650       0.00000000
Si       2.68949531      -0.00330687       2.70462807       0.00000000
Si       2.74988235       0.02686221      -2.65257952       0.00000000
Si       2.69498504      -2.71402805       0.02523654       0.00000000
