10
Lattice="16.290000149 0.0 0.0 0.0 16.290000149 0.0 0.0 0.0 29.1751946751" Properties=species:S:1:pos:R:3:initial_magmoms:R:1 pbc="T T T"
Si       1.38608353      -1.31419576      -1.35731758       0.00000000
Si       1.36994014       1.36207207       1.32615847       0.00000000
Si      -1.35516511       1.37077093      -1.33835371       0.00000000
Si      -1.35796699      -1.35744571       1.35384573       0.00000000
Si       0.00739566      -2.67799457      -2.66191559       0.00000000
Si      -0.00956223       2.70984152       2.64639438       0.00000000
Si       0.02507031       2.68872968      -2.70112705       0.00000000
Si       2.71542899      -2.68180643       0.01744677       0.00000000
Si      -2.75196747       0.00434943       2.65357148       0.00000000
Si      -2.73574263      -2.69252525       0.01178678       0.00000000
