10
Lattice="16.290000149 0.0 0.0 0.0 16.290000149 0.0 0.0 0.0 29.1751946751" Properties=species:S:1:pos:R:3:initial_magmoms:R:1 pbc="T T T"
Si       1.37723806       1.36176256       1.32245322       0.00000000
Si       1.36477621      -1.34750881      -1.34973203       0.00000000
Si      -1.35156502       1.35819505      -1.36431963       0.00000000
Si      -1.34983828      -1.34060185       1.38570505       0.00000000
Si      -0.03293838       2.71339274       2.61132580       0.00000000
Si      -2.70949943      -2.68516217       0.01724254       0.00000000
Si       0.00394218      -2.68926725      -2.70993796       0.00000000
Si       2.68410332      -2.72458397       0.03486436       0.00000000
Si      -2.72433962       0.04627989       2.69441675       0.00000000
Si       2.72183096       0.03383433      -2.70071860       0.00000000
