10
Lattice="16.290000149 0.0 0.0 0.0 16.290000149 0.0 0.0 0.0 29.1751946751" Properties=species:S:1:pos:R:3:initial_magmoms:R:1 pbc="T T T"
Si      -1.32507748      -1.33599097      -1.33721004       0.00000000
Si       1.31685168      -1.43518322       1.27591879       0.00000000
Si      -1.44285418       1.33181991       1.28198723       0.00000000
Si       1.29906403       1.29047589      -1.47214531       0.00000000
Si       2.63123739      -0.05125486       2.63947986       0.00000000
Si      -0.07400547       2.68022468       2.61952403       0.00000000
Si      -2.74193283       0.00707800      -2.59188053       0.00000000
Si       2.66140647       2.68563296      -0.15395750       0.00000000
Si      -0.15112233       2.67527252      -2.69856547       0.00000000
Si      -0.08099388      -2.77225014       2.60843746       0.00000000
