10
Lattice="16.290000149 0.0 0.0 0.0 16.290000149 0.0 0.0 0.0 29.1751946751" Properties=species:S:1:pos:R:3:initial_magmoms:R:1 pbc="T T T"
Si      -1.40234405       1.17030619      -1.46051025       0.00000000
Si      -1.45965227      -1.17858151       1.41644987       0.00000000
Si       1.46006473      -1.28010079      -1.34585173       0.00000000
Si       1.21989963       1.49030695       1.39811909       0.00000000
H       -2.30381637       1.91291843      -0.48331627       0.00000000
Si       2.65140620       0.41428728      -2.53409906       0.00000000
Si      -0.07189087      -2.53874765       2.77290678       0.00000000
Si      -2.85490707      -2.50014035       0.05140669       0.00000000
Si       2.60533808       0.15048702       2.77005053       0.00000000
Si      -0.25054330       2.81041599      -2.64050099       0.00000000
