10
Lattice="16.290000149 0.0 0.0 0.0 16.290000149 0.0 0.0 0.0 29.1751946751" Properties=species:S:1:pos:R:3:initial_magmoms:R:1 pbc="T T T"
Si       2.30071817       0.06149475      -0.45303242       0.00000000
Si      -0.86302792       2.07658406      -0.79228159       0.00000000
Si      -0.14445972       0.41635611       2.35875614       0.00000000
Si      -0.92181853      -2.08132119      -0.81305433       0.00000000
H       -2.31133925       0.20132811       0.91785162       0.00000000
H       -1.01470411       2.87282298       0.48352050       0.00000000
Si      -3.59271066       0.16175970       0.09762020       0.00000000
Si      -2.99015985      -1.35761513      -1.65828889       0.00000000
Si       3.07128405       2.10683459       0.42756248       0.00000000
Si       2.05936553       0.03510495       3.16332048       0.00000000
