10
Lattice="16.290000149 0.0 0.0 0.0 16.290000149 0.0 0.0 0.0 29.1751946751" Properties=species:S:1:pos:R:3:initial_magmoms:R:1 pbc="T T T"
Si       1.34993602       1.39481927      -1.31067812       0.00000000
Si      -1.32377428       1.35153244       1.38497567       0.00000000
Si      -1.33705063      -1.32491458      -1.40470393       0.00000000
Si       1.38460114      -1.35674524       1.33925814       0.00000000
Si       2.67035456      -0.09410733      -2.51892212       0.00000000
Si       0.02055798      -2.71792136       2.66850918       0.00000000
Si       2.71063973       2.67730225       0.09902061       0.00000000
Si      -0.03277548       2.71917081      -2.67647109       0.00000000
Si      -2.71117730      -0.00768888       2.68910687       0.00000000
Si      -2.69418683       2.71205208       0.07124583       0.00000000
