10
Lattice="16.290000149 0.0 0.0 0.0 16.290000149 0.0 0.0 0.0 29.1751946751" Properties=species:S:1:pos:R:3:initial_magmoms:R:1 pbc="T T T"
Si      -1.37376829      -1.32006016       1.36370695       0.00000000
Si      -1.37591857       1.35081568      -1.34351771       0.00000000
Si       1.28806660      -1.36782244      -1.41251705       0.00000000
Si       1.40897098       1.32356251       1.35787191       0.00000000
Si       0.04349430      -2.69327459       2.61867795       0.00000000
Si      -0.01225008       2.70073541      -2.69319140       0.00000000
Si       0.04766454       2.69703758       2.69978499       0.00000000
Si       2.67848327      -0.00951336      -2.72446720       0.00000000
Si       2.60483618      -2.81116533      -0.13802785       0.00000000
Si      -2.73153981      -2.70242957       0.01149503       0.00000000
