10
Lattice="16.290000149 0.0 0.0 0.0 16.290000149 0.0 0.0 0.0 29.1751946751" Properties=species:S:1:pos:R:3:initial_magmoms:R:1 pbc="T T T"
H       -1.44347320       0.27927576       0.44568027       0.00000000
Si       0.45318780      -2.13372938       0.88637159       0.00000000
Si      -0.36719289       0.25303257      -2.36120686       0.00000000
Si       1.22787505       1.58364865       1.41277963       0.00000000
H        0.19665288       2.69498504      -0.97518088       0.00000000
H        1.53499531      -1.39328371      -2.10560297       0.00000000
H        0.38449287      -3.20795715      -0.17610148       0.00000000
Si      -0.78333724       2.95207383       1.49181523       0.00000000
Si       3.42409287       0.16643493       0.37361754       0.00000000
Si      -2.65919591       2.24797115       0.21114088       0.00000000
