10
Lattice="16.290000149 0.0 0.0 0.0 16.290000149 0.0 0.0 0.0 29.1751946751" Properties=species:S:1:pos:R:3:initial_magmoms:R:1 pbc="T T T"
Si      -1.36974466      -1.34311051       1.34237988       0.00000000
Si      -1.38194587       1.34584723      -1.33622392       0.00000000
Si       1.34978941      -1.36438525      -1.35682160       0.00000000
Si       1.36645408       1.36190917       1.35253285       0.00000000
Si       0.00545715       2.70506855      -2.64035512       0.00000000
Si      -0.00180819      -2.70014897       2.66839248       0.00000000
Si       2.71383257      -0.00320913      -2.68607265       0.00000000
Si      -2.70847316      -2.70651836      -0.02331098       0.00000000
Si      -2.69975801       2.71624349       0.05274875       0.00000000
Si      -2.68775228       0.01845657       2.73418254       0.00000000
