10
Lattice="16.290000149 0.0 0.0 0.0 16.290000149 0.0 0.0 0.0 29.1751946751" Properties=species:S:1:pos:R:3:initial_magmoms:R:1 pbc="T T T"
Si      -1.45608166      -1.29885058       1.30264327       0.00000000
Si      -1.36200691       1.32678793      -1.38013258       0.00000000
Si       1.38034945       1.35123922       1.33849958       0.00000000
Si       1.37450134      -1.38688174      -1.30871171       0.00000000
Si      -0.04398300       2.72955242       2.57856206       0.00000000
Si       2.69140124       2.66711285      -0.08309095       0.00000000
Si      -0.22467168      -2.70107750       2.67031804       0.00000000
Si       0.01484019      -2.73144206      -2.67717421       0.00000000
Si       2.69535971      -0.03029940       2.71790279       0.00000000
Si       2.72433962      -0.04627989      -2.69441675       0.00000000
