10
Lattice="16.290000149 0.0 0.0 0.0 16.290000149 0.0 0.0 0.0 29.1751946751" Properties=species:S:1:pos:R:3:initial_magmoms:R:1 pbc="T T T"
Si      -1.35620767      -0.57609586      -0.27716435       0.00000000
H        0.91919584      -1.77334571      -0.45437448       0.00000000
H        1.59739741      -0.84914884       1.16543233       0.00000000
Si       1.06427458      -1.10517877       2.55212933       0.00000000
Si      -2.71849151       0.77341663       1.04750619       0.00000000
Si      -1.81703549      -0.15169248      -2.48919843       0.00000000
Si       2.05267034      -1.83368387      -1.45604644       0.00000000
Si      -1.17638236       2.08435439       2.23697888       0.00000000
Si       0.01176138       1.13946922      -3.12653056       0.00000000
Si      -1.80696827      -2.78321169       0.34047452       0.00000000
