10
Lattice="16.290000149 0.0 0.0 0.0 16.290000149 0.0 0.0 0.0 29.1751946751" Properties=species:S:1:pos:R:3:initial_magmoms:R:1 pbc="T T T"
Si       1.39968568       1.41963279       1.25447502       0.00000000
Si      -1.26293113       1.39092492      -1.43221031       0.00000000
Si       1.43011540      -1.27550701      -1.41674745       0.00000000
Si      -1.29342601      -1.59210316       1.28376692       0.00000000
Si      -2.52726320      -2.72147258      -0.34785585       0.00000000
Si       0.27533358      -2.68306076       2.61590630       0.00000000
Si      -2.58636332       2.78580180      -0.06853253       0.00000000
Si       2.86784060       0.12753865       2.52744711       0.00000000
Si      -2.56950317       0.08070066      -2.88008769       0.00000000
Si       2.86426120      -2.62708832      -0.12819581       0.00000000
