10
Lattice="16.290000149 0.0 0.0 0.0 16.290000149 0.0 0.0 0.0 29.1751946751" Properties=species:S:1:pos:R:3:initial_magmoms:R:1 pbc="T T T"
Si       1.25682238      -0.23918607      -1.93667860       0.00000000
Si      -0.33291873       2.12437892       0.92368666       0.00000000
Si       1.23468427      -1.32339961       1.50517747       0.00000000
Si      -2.05609124      -0.69414949      -0.91292102       0.00000000
H        2.57352680      -0.67919527      -1.32178219       0.00000000
H       -2.51136416       0.29038554       1.70855775       0.00000000
H        0.37447452      -3.08252415      -0.24521751       0.00000000
H       -1.24251976       2.05258889       2.13865847       0.00000000
H       -3.18956574      -0.63381133       0.08875094       0.00000000
Si       0.29356209      -2.23591655      -2.82456730       0.00000000
