10
Lattice="16.290000149 0.0 0.0 0.0 16.290000149 0.0 0.0 0.0 29.1751946751" Properties=species:S:1:pos:R:3:initial_magmoms:R:1 pbc="T T T"
Si      -1.39300678      -1.34293132      -1.32919269       0.00000000
Si      -1.35915616       1.35537688       1.35314553       0.00000000
Si       1.32921514      -1.36972837       1.37336394       0.00000000
Si       1.35948196       1.34465806      -1.37263456       0.00000000
Si      -0.03692943      -2.73802811      -2.61829867       0.00000000
Si       2.70619256       2.70156620      -0.01111575       0.00000000
Si      -2.70236930       2.71358822      -0.00965699       0.00000000
Si       2.68899032      -2.72696231       0.03381405       0.00000000
Si       2.70247844      -0.02251278       2.71626897       0.00000000
Si      -0.01117494       2.71669961       2.70316931       0.00000000
