10
Lattice="16.290000149 0.0 0.0 0.0 16.290000149 0.0 0.0 0.0 29.1751946751" Properties=species:S:1:pos:R:3:initial_magmoms:R:1 pbc="T T T"
Si      -1.33980853       1.35876520      -1.36274417       0.00000000
Si       1.35073423       1.38699577       1.32294920       0.00000000
Si       1.38662110      -1.35107632      -1.33362732       0.00000000
Si      -1.35027160      -1.36379881       1.36496148       0.00000000
Si       2.65797416      -0.04028517       2.62413371       0.00000000
Si      -2.66809025       2.70839171       0.03028385       0.00000000
Si       0.03863988      -2.71239905      -2.68365111       0.00000000
Si      -2.69250896       0.00676035      -2.72373782       0.00000000
Si      -2.69394248      -2.72635958       0.00971534       0.00000000
Si       0.01734885       2.71208954      -2.72432133       0.00000000
