10
Lattice="10.86 0.0 0.0 0.0 10.86 0.0 0.0 0.0 10.86" Properties=species:S:1:pos:R:3:initial_magmoms:R:1 pbc="T T T"
Si      -1.35750000      -1.35750000       1.35750000       0.00000000
Si       1.35750000       1.35750000       1.35750000       0.00000000
Si      -1.35750000       1.35750000      -1.35750000       0.00000000
Si       1.35750000      -1.35750000      -1.35750000       0.00000000
Si      -2.54992800      -2.70040416       0.05766660       0.00000000
Si       2.58288810       0.08325276      -2.72279748       0.00000000
Si      -2.57204982       0.02061228      -2.75030586       0.00000000
Si       2.62415610      -0.07201266       2.70860346       0.00000000
Si      -2.73535164       0.12046998       2.59767942       0.00000000
Si       0.00000000      -2.71500000       2.71500000       0.00000000
