10
Lattice="10.86 0.0 0.0 0.0 10.86 0.0 0.0 0.0 10.86" Properties=species:S:1:pos:R:3:initial_magmoms:R:1 pbc="T T T"
Si       1.53660312      -1.35810816      -1.14722868       0.00000000
Si      -1.36825140      -1.22295546       1.48285698       0.00000000
Si      -1.36825140       1.49204454      -1.23214302       0.00000000
Si       1.34674860       1.49204454       1.48285698       0.00000000
Si       0.03529500      -2.63086758      -2.59380240       0.00000000
Si       2.84163846      -2.35679376       0.59726742       0.00000000
Si      -2.72575140      -2.58045546       0.12535698       0.00000000
Si      -2.72575140       0.13454454      -2.58964302       0.00000000
Si       0.16286742      -2.56405686       2.76896334       0.00000000
Si       2.75707164       0.13699890      -2.59492098       0.00000000
