10
Lattice="10.86 0.0 0.0 0.0 10.86 0.0 0.0 0.0 10.86" Properties=species:S:1:pos:R:3:initial_magmoms:R:1 pbc="T T T"
Si      -1.15488498      -1.40020152       1.45207974       0.00000000
Si       1.56011502      -1.40020152      -1.26292026       0.00000000
Si       1.56011502       1.31479848       1.45207974       0.00000000
Si      -2.37499512       0.18096018      -2.14850982       0.00000000
Si      -2.59862424       2.66621688       0.03367686       0.00000000
Si      -2.51238498      -0.04270152       2.80957974       0.00000000
Si      -2.53504980      -2.80760322       0.08973618       0.00000000
Si       0.26799222      -2.74785150      -2.60067678       0.00000000
Si       0.12348906       2.70132726      -2.75188056       0.00000000
Si       0.20261502       2.67229848       2.80957974       0.00000000
