10
Lattice="16.28999089631971 0.0 0.0 0.0 16.28999089631971 0.0 0.0 0.0 34.36671206372826" Properties=species:S:1:pos:R:3:initial_magmoms:R:1 pbc="T T T"
Si      -0.33541110      -1.97509734       1.30425182       0.00000000
Si      -1.16082540      -0.78490107      -1.96718606       0.00000000
Si      -1.05852420       2.10669840       0.56808207       0.00000000
Si       2.34784512       0.36097011      -0.51732241       0.00000000
Si       1.89944658       2.33179037      -1.75665547       0.00000000
Si       0.81961506       3.49431481       0.11042031       0.00000000
Si      -0.14271669      -1.01284704       3.48942606       0.00000000
Si       0.58593501       1.27809711       3.60555124       0.00000000
Si       1.62919548      -3.37150872       1.22393677       0.00000000
Si       0.23547195      -2.17958571      -3.32419082       0.00000000
