10
Lattice="16.28999089631971 0.0 0.0 0.0 16.28999089631971 0.0 0.0 0.0 34.36671206372826" Properties=species:S:1:pos:R:3:initial_magmoms:R:1 pbc="T T T"
Si       0.59945571      -1.27224900      -1.89003275       0.00000000
Si      -1.36680919       1.94334813       0.09251524       0.00000000
Si       2.09065860       1.10107368       0.34442338       0.00000000
Si      -1.13316498      -1.94181687       0.99158330       0.00000000
Si       3.04867350      -0.60856182       1.63791841       0.00000000
Si      -2.62405673      -2.18659041      -0.94443214       0.00000000
Si      -1.74401066       2.19756987       2.41673728       0.00000000
Si       2.79220374       1.57623669      -1.85621589       0.00000000
Si      -0.76960476       0.48345462       3.60190837       0.00000000
Si       1.48094019      -0.30007809       3.42278897       0.00000000
