10
Lattice="16.28999089631971 0.0 0.0 0.0 16.28999089631971 0.0 0.0 0.0 34.36671206372826" Properties=species:S:1:pos:R:3:initial_magmoms:R:1 pbc="T T T"
Si      -1.35697329       1.35724533       1.35782955       0.00000000
Si       1.35747828      -1.35716282       1.35762335       0.00000000
Si      -1.35799956      -1.35684896      -1.35752025       0.00000000
Si       1.35733167       1.35657744      -1.35937606       0.00000000
Si      -0.00100998      -2.71390978       2.71466247       0.00000000
Si       2.71420722       0.00074934       2.71469684       0.00000000
Si      -0.00074934       2.71420233       2.71493740       0.00000000
Si       2.71554300      -2.71472428       0.00024057       0.00000000
Si      -2.71542897      -2.71496863      -0.00054987       0.00000000
Si       2.72043000      -0.00494564      -2.70998859       0.00000000
