10
Lattice="16.28999089631971 0.0 0.0 0.0 16.28999089631971 0.0 0.0 0.0 34.36671206372826" Properties=species:S:1:pos:R:3:initial_magmoms:R:1 pbc="T T T"
Si       1.13358852      -0.35934241       2.02815265       0.00000000
Si      -2.31656832      -0.01855757       0.44247167       0.00000000
Si       1.33569855       1.59793171      -1.25589783       0.00000000
Si      -0.73570527      -1.93910688      -1.39298672       0.00000000
Si       0.44618310      -0.24185274      -2.68259831       0.00000000
Si      -1.86816978      -1.98937782       1.68180473       0.00000000
Si      -0.37690173       3.20252929      -1.22266520       0.00000000
Si       0.73107891       1.86308404       2.82408614       0.00000000
Si      -0.39205143      -3.54368817       0.39315541       0.00000000
Si      -0.20981520      -1.75486698       3.42835638       0.00000000
