10
Lattice="16.28999089631971 0.0 0.0 0.0 16.28999089631971 0.0 0.0 0.0 34.36671206372826" Properties=species:S:1:pos:R:3:initial_magmoms:R:1 pbc="T T T"
Si       1.41302718       1.01108772      -1.57585210       0.00000000
Si      -0.68404968       1.65074715       1.55808454       0.00000000
Si      -2.22684300      -1.03821057      -0.49663363       0.00000000
Si       0.68336550      -2.42979196       0.57248101       0.00000000
Si      -0.85206474      -1.73956023      -2.22998846       0.00000000
Si      -1.60427178       0.01083285       2.91645846       0.00000000
Si      -2.30216796      -1.81429875       1.70950504       0.00000000
Si       0.18946899      -0.04114854      -3.40426530       0.00000000
Si       1.67565456      -2.10408156       2.76958536       0.00000000
Si       1.72750563      -3.04092923      -1.66180329       0.00000000
