10
Lattice="16.28999089631971 0.0 0.0 0.0 16.28999089631971 0.0 0.0 0.0 34.36671206372826" Properties=species:S:1:pos:R:3:initial_magmoms:R:1 pbc="T T T"
Si      -1.31730714      -1.36629117      -1.36185390       0.00000000
Si      -1.35285192       1.34990343       1.35477091       0.00000000
Si       1.36282140      -1.36412460       1.35116241       0.00000000
Si       1.36016613       1.35355239      -1.37844959       0.00000000
Si       0.56081583      -2.12975460      -2.73501788       0.00000000
Si       2.41341237      -0.31022676      -2.69247874       0.00000000
Si      -2.71911051      -0.01484019      -2.58814479       0.00000000
Si      -2.70524772       2.71134018      -0.00494881       0.00000000
Si      -2.70943425      -0.00495216       2.71101960       0.00000000
Si       0.00415395       2.70948312       2.71174130       0.00000000
