10
Lattice="16.28999089631971 0.0 0.0 0.0 16.28999089631971 0.0 0.0 0.0 34.36671206372826" Properties=species:S:1:pos:R:3:initial_magmoms:R:1 pbc="T T T"
Si      -1.98426209       0.48573848       1.11605960       0.00000000
Si       1.32766758      -1.73366229       0.85470061       0.00000000
Si      -0.31679163      -0.90506100      -2.18276857       0.00000000
Si       0.94783365       2.21693053       0.41312248       0.00000000
Si       1.56134763       0.48255541      -2.64043033       0.00000000
Si      -3.58032113       0.67864954      -0.58261920       0.00000000
Si       3.54840183      -1.15386861       0.08189592       0.00000000
Si       3.51443718       0.85855631      -1.21940036       0.00000000
Si       1.50667839      -1.46927559       3.20359796       0.00000000
Si      -2.18173762       2.71385699       1.78335842       0.00000000
