10
Lattice="16.28999089631971 0.0 0.0 0.0 16.28999089631971 0.0 0.0 0.0 34.36671206372826" Properties=species:S:1:pos:R:3:initial_magmoms:R:1 pbc="T T T"
Si       1.35684297       1.34685720       1.36951424       0.00000000
Si       1.35568638      -1.35935163      -1.35965099       0.00000000
Si      -1.35904212       1.35622395      -1.35965099       0.00000000
Si      -1.35281934      -1.36493910       1.38497927       0.00000000
Si      -0.10632483       2.60099172       2.69417990       0.00000000
Si       2.71507059       2.71450044      -0.00333357       0.00000000
Si      -2.71362078      -2.71624347       0.00075607       0.00000000
Si       2.71489140      -2.71497285      -0.00206200       0.00000000
Si       2.71362078      -0.00099369      -2.71713687       0.00000000
Si      -2.71640637       2.71583622       0.00065297       0.00000000
