10
Lattice="16.28999089631971 0.0 0.0 0.0 16.28999089631971 0.0 0.0 0.0 34.36671206372826" Properties=species:S:1:pos:R:3:initial_magmoms:R:1 pbc="T T T"
Si      -2.22759234       0.70459137       0.67619980       0.00000000
Si       0.74350818      -1.88721279       1.55296385       0.00000000
Si      -0.36447246      -0.54776754      -2.49378749       0.00000000
Si       1.12783815       2.17479645       0.98993369       0.00000000
Si       1.34812782      -2.15236512      -2.52702012       0.00000000
Si      -2.17375389      -0.04199562       2.88587752       0.00000000
Si      -1.43088102      -2.23032906       2.45945512       0.00000000
Si      -0.37787913       3.61499535      -0.59732816       0.00000000
Si      -1.88753859       3.02526477       1.11578466       0.00000000
Si       2.13819282       2.26186650      -2.39951954       0.00000000
