10
Lattice="16.28999089631971 0.0 0.0 0.0 16.28999089631971 0.0 0.0 0.0 34.36671206372826" Properties=species:S:1:pos:R:3:initial_magmoms:R:1 pbc="T T T"
Si      -0.60641154       1.33465599      -1.80167589       0.00000000
Si       0.05463666       0.95456142       2.14994834       0.00000000
Si      -1.92764457      -1.43980794       0.22798890       0.00000000
Si       2.32492509      -0.39304512      -0.68269512       0.00000000
Si      -1.27031049      -0.54501453      -3.06427523       0.00000000
Si       1.62139257      -0.46669221       3.17479863       0.00000000
Si       0.94724721       3.06470286       1.68840314       0.00000000
Si      -0.93887415      -3.35797336       1.11300096       0.00000000
Si       3.29463621      -1.00377351       1.42357311       0.00000000
Si       3.00511404       1.78668720      -1.30356448       0.00000000
