10
Lattice="16.28999089631971 0.0 0.0 0.0 16.28999089631971 0.0 0.0 0.0 34.36671206372826" Properties=species:S:1:pos:R:3:initial_magmoms:R:1 pbc="T T T"
Si      -0.89261055      -2.11014144       0.46154520       0.00000000
Si       0.26689536       1.14126111       2.03897817       0.00000000
Si       2.14185807      -0.13207932      -0.96866069       0.00000000
Si      -1.70673588       1.11889494      -1.24421314       0.00000000
Si      -3.11150403       1.58120514       0.62083500       0.00000000
Si      -0.94724721      -3.06470286      -1.68840314       0.00000000
Si       2.60379360       2.06612586      -1.65266174       0.00000000
Si       1.11638628       3.54633300      -0.54715273       0.00000000
Si       1.81438020      -0.12452076       3.29879380       0.00000000
Si      -1.88296110       1.82703753       2.73669154       0.00000000
