10
Lattice="16.28999089631971 0.0 0.0 0.0 16.28999089631971 0.0 0.0 0.0 34.36671206372826" Properties=species:S:1:pos:R:3:initial_magmoms:R:1 pbc="T T T"
Si      -1.35702216       1.35716392       1.35824195       0.00000000
Si       1.35742941       1.35811967      -1.35697038       0.00000000
Si       1.35751086      -1.35754344       1.35851689       0.00000000
Si      -1.35827649      -1.35961227      -1.35635178       0.00000000
Si       0.00011403      -2.71217097      -2.71538417       0.00000000
Si      -2.71179304      -0.00309510      -2.71696504       0.00000000
Si      -0.00105885       2.71398472       2.71479994       0.00000000
Si      -2.71460958       2.71443269       0.00027493       0.00000000
Si       2.71458189      -2.71479366       0.00068733       0.00000000
Si       2.71441899       0.00105885       2.71521234       0.00000000
