10
Lattice="16.28999089631971 0.0 0.0 0.0 16.28999089631971 0.0 0.0 0.0 34.36671206372826" Properties=species:S:1:pos:R:3:initial_magmoms:R:1 pbc="T T T"
Si      -0.40506714       1.83670306      -1.39085598       0.00000000
Si       0.47895858       1.15597098       1.99138024       0.00000000
Si       1.81794771      -1.42084638      -0.65372396       0.00000000
Si      -2.27286225      -0.68641173       0.38738179       0.00000000
Si      -2.05293096       2.86113229      -0.03546647       0.00000000
Si       0.94957668      -3.45984939      -0.00721701       0.00000000
Si       1.75602942       2.34650349      -2.13176834       0.00000000
Si      -1.47776364       2.46945390       2.22967916       0.00000000
Si      -3.64925322       1.15792578      -0.21616674       0.00000000
Si       2.62229904       2.13552193       1.82875687       0.00000000
