10
Lattice="16.28999089631971 0.0 0.0 0.0 16.28999089631971 0.0 0.0 0.0 34.36671206372826" Properties=species:S:1:pos:R:3:initial_magmoms:R:1 pbc="T T T"
Si       0.37813977       1.97978186       1.34910040       0.00000000
Si      -0.75256216      -1.92459624       1.28266951       0.00000000
Si       2.03005980      -0.44737017      -1.26961015       0.00000000
Si      -1.93653891       0.25343444      -1.46261372       0.00000000
Si      -2.90252681      -2.22724815       0.45374395       0.00000000
Si       1.35169533       1.04148763       3.34010261       0.00000000
Si      -2.60283968      -1.99843881      -1.83631755       0.00000000
Si       1.21249728       3.70665218      -0.13354912       0.00000000
Si       2.93006601      -0.58125768       2.58894897       0.00000000
Si      -1.46088068       1.50764390      -3.35714851       0.00000000
