10
Lattice="16.28999089631971 0.0 0.0 0.0 16.28999089631971 0.0 0.0 0.0 34.36671206372826" Properties=species:S:1:pos:R:3:initial_magmoms:R:1 pbc="T T T"
Si      -1.46854350       1.18789612      -1.34755390       0.00000000
Si       1.27307979      -1.53062373      -1.30597015       0.00000000
Si      -1.18188837      -1.69725414       1.28961159       0.00000000
Si       0.88951545       1.83978445       1.42670048       0.00000000
Si      -0.44618310       0.24185274       2.68259831       0.00000000
Si      -2.68271865       2.52593554       0.14557747       0.00000000
Si      -0.09756081       2.54341471      -2.69500470       0.00000000
Si       2.69920413       2.56675829       0.09165607       0.00000000
Si       2.61661383      -0.17629396      -2.69235846       0.00000000
Si      -0.82308483       3.44438204       1.45993311       0.00000000
