10
Lattice="16.28999089631971 0.0 0.0 0.0 16.28999089631971 0.0 0.0 0.0 34.36671206372826" Properties=species:S:1:pos:R:3:initial_magmoms:R:1 pbc="T T T"
Si      -0.46847108      -2.11132802      -0.77108635       0.00000000
Si       0.87428430       0.11934706       2.16293897       0.00000000
Si       2.01298788       0.60053411      -1.03787528       0.00000000
Si      -1.92647888       1.32044459      -0.34198334       0.00000000
Si      -0.93783648       2.56214984      -2.09681737       0.00000000
Si      -1.88213750       2.38958987       1.83088761       0.00000000
Si       1.03943232       1.53882833      -3.02887749       0.00000000
Si      -1.10775747       0.60165975       3.34690722       0.00000000
Si      -3.56567642      -0.38163267      -0.85504427       0.00000000
Si      -2.70633005      -2.50020290      -0.17575146       0.00000000
