10
Lattice="16.28999089631971 0.0 0.0 0.0 16.28999089631971 0.0 0.0 0.0 34.36671206372826" Properties=species:S:1:pos:R:3:initial_magmoms:R:1 pbc="T T T"
Si      -0.06270021      -1.88857789       1.40759258       0.00000000
Si       2.19880791       0.28009026      -0.90398250       0.00000000
Si      -0.60786135       1.59097914       1.70819838       0.00000000
Si      -1.28583486      -0.40620744      -2.00629540       0.00000000
Si       1.16703189      -1.18045159       3.26611104       0.00000000
Si      -3.46022406      -0.74932371      -1.09980413       0.00000000
Si       1.11268845      -3.60027638       0.22932920       0.00000000
Si      -2.22379677      -2.39837833       2.14850494       0.00000000
Si       0.07232760       3.77071146       1.08732901       0.00000000
Si      -0.88332525      -2.62863390      -2.80222890       0.00000000
