10
Lattice="16.28999089631971 0.0 0.0 0.0 16.28999089631971 0.0 0.0 0.0 34.36671206372826" Properties=species:S:1:pos:R:3:initial_magmoms:R:1 pbc="T T T"
Si       0.80518212      -2.16070234      -0.54835556       0.00000000
Si       1.95711318       0.97187769       0.97415936       0.00000000
Si      -0.96971112       0.61072839      -2.10626823       0.00000000
Si      -1.67324364       0.53708130       1.75122553       0.00000000
Si       0.44171964      -3.07981021       1.55365119       0.00000000
Si       1.51480710       0.52220853       3.26841361       0.00000000
Si      -3.29463621       1.00377351      -1.42357311       0.00000000
Si      -0.42454998      -2.86882864      -2.40687402       0.00000000
Si       1.74475674       3.32451207       0.54375042       0.00000000
Si      -3.23999955       1.95833493       0.72637523       0.00000000
