10
Lattice="16.28999089631971 0.0 0.0 0.0 16.28999089631971 0.0 0.0 0.0 34.36671206372826" Properties=species:S:1:pos:R:3:initial_magmoms:R:1 pbc="T T T"
Si       0.68018895       2.17973232      -0.62086937       0.00000000
Si       0.96971112      -0.61072839       2.10626823       0.00000000
Si       0.60786135      -1.59097914      -1.70819838       0.00000000
Si      -2.32492509       0.39304512       0.68269512       0.00000000
Si       0.54516114      -3.47955703      -0.30060580       0.00000000
Si      -2.93133663       1.72770111      -1.11898077       0.00000000
Si       1.77489324      -2.77143073       1.55791266       0.00000000
Si      -1.06779321       2.79303453      -2.10815840       0.00000000
Si       0.76418019       3.32566866       1.40243757       0.00000000
Si      -2.27028843       1.34760654       2.83264346       0.00000000
