10
Lattice="16.28999089631971 0.0 0.0 0.0 16.28999089631971 0.0 0.0 0.0 34.36671206372826" Properties=species:S:1:pos:R:3:initial_magmoms:R:1 pbc="T T T"
Si       1.16206344       1.36883241      -1.44217380       0.00000000
Si      -1.11203685       1.50127011       1.43481447       0.00000000
Si       1.58304591      -1.21792185       1.40777816       0.00000000
Si      -1.74307887      -0.83046420      -1.50874216       0.00000000
Si      -2.47958235      -2.54800035      -0.01647541       0.00000000
Si       2.66602140       2.60262072       0.01537224       0.00000000
Si      -2.47801851       0.14941188       2.79199449       0.00000000
Si      -2.57414580       2.71349046       0.05874993       0.00000000
Si       0.24381243      -2.56784157       2.78831725       0.00000000
Si      -3.48874785       0.95330709      -1.29755859       0.00000000
