10
Lattice="16.28999089631971 0.0 0.0 0.0 16.28999089631971 0.0 0.0 0.0 34.36671206372826" Properties=species:S:1:pos:R:3:initial_magmoms:R:1 pbc="T T T"
Si      -0.47649879       2.11395330       0.70073765       0.00000000
Si      -1.88309142      -1.06868916       0.71352207       0.00000000
Si       1.73030751      -1.59982461       0.07760008       0.00000000
Si      -0.03324789       0.74696166      -2.25294544       0.00000000
Si       1.73819187      -1.10006370      -2.29525088       0.00000000
Si      -2.64515391       2.36486817      -0.51189246       0.00000000
Si       1.73030751       3.13619967       0.41961779       0.00000000
Si       3.50858907      -0.45263394       1.06921774       0.00000000
Si      -1.64108718      -1.41418377       3.04310532       0.00000000
Si      -3.71600964       0.32417100       0.38586966       0.00000000
