10
Lattice="16.28999089631971 0.0 0.0 0.0 16.28999089631971 0.0 0.0 0.0 34.36671206372826" Properties=species:S:1:pos:R:3:initial_magmoms:R:1 pbc="T T T"
Si       1.78523739      -0.27324846       1.51117391       0.00000000
Si      -1.69479531       1.49478669       0.72647833       0.00000000
Si       1.23914772       0.84362652      -1.87092485       0.00000000
Si      -1.38974877      -1.96372692       0.16705668       0.00000000
Si       1.55815479      -1.34415306      -2.71693067       0.00000000
Si      -1.56836862      -1.88880921       2.56582016       0.00000000
Si       1.79750376       2.00889909       2.31422132       0.00000000
Si       0.70558506      -1.52375031       3.16713485       0.00000000
Si      -3.36523707       1.16802558      -0.87518318       0.00000000
Si       3.25943352      -1.93269447       0.43281461       0.00000000
