10
Lattice="16.28999089631971 0.0 0.0 0.0 16.28999089631971 0.0 0.0 0.0 34.36671206372826" Properties=species:S:1:pos:R:3:initial_magmoms:R:1 pbc="T T T"
Si      -0.46193553      -2.19820518       0.68400105       0.00000000
Si      -1.48740732       1.48020714       1.10550901       0.00000000
Si       2.27395368       0.36505890       0.60131470       0.00000000
Si       0.17861985      -0.07491771      -2.39876348       0.00000000
Si       1.21112892      -2.21794866      -2.49433736       0.00000000
Si       1.56836862       1.88880921      -2.56582016       0.00000000
Si      -0.61903629       3.51921015       0.45900206       0.00000000
Si      -0.54592677      -3.34414152      -1.33930588       0.00000000
Si      -2.60379360      -2.06612586       1.65266174       0.00000000
Si       1.48835214      -2.81009016       1.93158213       0.00000000
