10
Lattice="16.28999089631971 0.0 0.0 0.0 16.28999089631971 0.0 0.0 0.0 34.36671206372826" Properties=species:S:1:pos:R:3:initial_magmoms:R:1 pbc="T T T"
Si       1.37401263      -1.35819504      -1.24039156       0.00000000
Si      -1.33285106      -1.34534223       1.34758139       0.00000000
Si      -1.35272812       1.26939825      -1.44739269       0.00000000
Si       1.38787542       1.36798533       1.34280442       0.00000000
Si       2.29423473       0.28171926      -2.59876548       0.00000000
Si       0.42670026       1.90273716      -2.91751695       0.00000000
Si      -2.68881009      -2.70023040      -0.03358317       0.00000000
Si      -2.68965206       0.00824274       2.70180244       0.00000000
Si      -2.66790194       2.72438847      -0.02198440       0.00000000
Si       0.02614545      -2.70503595       2.70053087       0.00000000
