10
Lattice="16.28999089631971 0.0 0.0 0.0 16.28999089631971 0.0 0.0 0.0 34.36671206372826" Properties=species:S:1:pos:R:3:initial_magmoms:R:1 pbc="T T T"
Si      -0.99577512       1.96750620      -0.78675758       0.00000000
Si       0.82702701      -0.87495056      -2.10403439       0.00000000
Si      -1.37244879      -1.29620833       1.62197225       0.00000000
Si       1.82420307       1.11650031       1.58523421       0.00000000
Si      -1.61528382       2.53943181       1.38477307       0.00000000
Si       2.91232198      -1.62260780      -0.94030813       0.00000000
Si      -2.09622978       0.65695941       2.85886527       0.00000000
Si       1.43997084      -0.55236132       3.29982480       0.00000000
Si       0.60066117       3.09798333       2.04901325       0.00000000
Si       0.35640891      -2.58511616       2.72277302       0.00000000
