10
Lattice="16.28999089631971 0.0 0.0 0.0 16.28999089631971 0.0 0.0 0.0 34.36671206372826" Properties=species:S:1:pos:R:3:initial_magmoms:R:1 pbc="T T T"
Si       1.92647888      -1.32044459       0.34198334       0.00000000
Si       0.98864240       1.24170525      -1.75483403       0.00000000
Si      -1.63919754      -1.70207727      -0.51306093       0.00000000
Si       0.04434138       1.06914528       2.17287095       0.00000000
Si       2.12604767       2.98375785      -0.62121303       0.00000000
Si       1.45800780      -3.43177262      -0.42910301       0.00000000
Si       2.06523710       2.60335377       1.82002772       0.00000000
Si       0.81872141      -0.71878485       3.68889057       0.00000000
Si      -0.77985117      -3.82064750       0.16623188       0.00000000
Si      -2.07278847       2.22130440       2.45797735       0.00000000
