10
Lattice="16.28999089631971 0.0 0.0 0.0 16.28999089631971 0.0 0.0 0.0 34.36671206372826" Properties=species:S:1:pos:R:3:initial_magmoms:R:1 pbc="T T T"
Si      -1.35697329       1.35694071      -1.35679855       0.00000000
Si       1.35720135      -1.35663120      -1.35731405       0.00000000
Si       1.35731538       1.35633798       1.35800139       0.00000000
Si      -1.35930276      -1.35782037       1.35686728       0.00000000
Si      -0.00141723       2.71296918      -2.71404387       0.00000000
Si       0.00289962      -2.71197549       2.71565910       0.00000000
Si       2.71631097       0.00071676       2.71139763       0.00000000
Si       2.71459521      -0.00016290      -2.71387203       0.00000000
Si      -2.71485882      -2.71464705      -0.00010310       0.00000000
Si      -2.71521720      -0.00177561      -2.71483430       0.00000000
