10
Lattice="16.28999089631971 0.0 0.0 0.0 16.28999089631971 0.0 0.0 0.0 34.36671206372826" Properties=species:S:1:pos:R:3:initial_magmoms:R:1 pbc="T T T"
Si      -0.92471814      -1.74706992       1.38528857       0.00000000
Si      -0.11108151       2.25678402       1.03141434       0.00000000
Si       2.47458851      -0.12825117       0.35964784       0.00000000
Si      -0.29471868      -1.09069695      -2.63685619       0.00000000
Si      -0.19243377      -0.96024663       3.49409993       0.00000000
Si       2.39447429      -2.48573997       1.14183465       0.00000000
Si      -2.07563922       3.19132503       0.24300716       0.00000000
Si       0.29882376      -3.72855294       0.92150953       0.00000000
Si       2.90917313       1.70150679       1.93739011       0.00000000
Si      -3.14066313      -2.30562144       0.72104839       0.00000000
