10
Lattice="16.28999089631971 0.0 0.0 0.0 16.28999089631971 0.0 0.0 0.0 34.36671206372826" Properties=species:S:1:pos:R:3:initial_magmoms:R:1 pbc="T T T"
Si      -1.35166275      -1.34633592       1.37845990       0.00000000
Si       1.35812988       1.37365425       1.38096867       0.00000000
Si      -1.64551806       1.11078252      -1.39396961       0.00000000
Si       1.50200316      -1.33317360      -1.45304258       0.00000000
Si      -0.14792949       2.35278099      -2.61216198       0.00000000
Si       2.70280422       2.71393029       0.00243660       0.00000000
Si      -2.72849355      -2.70976005      -0.00156369       0.00000000
Si       2.73672000      -2.70190827       0.01600802       0.00000000
Si      -2.72354139       2.71917567       0.01229985       0.00000000
Si      -0.00104256      -2.70492192       2.73962303       0.00000000
