10
Lattice="16.28999089631971 0.0 0.0 0.0 16.28999089631971 0.0 0.0 0.0 34.36671206372826" Properties=species:S:1:pos:R:3:initial_magmoms:R:1 pbc="T T T"
Si      -1.96455771       0.93454101      -0.78840718       0.00000000
Si      -0.26327898       0.34599960       2.36133811       0.00000000
Si       0.11108151      -2.25678402      -1.03141434       0.00000000
Si       2.09032858       1.44070389      -0.00677025       0.00000000
Si       3.02025464      -0.55527723       0.90597577       0.00000000
Si       0.90328769       2.72451879       1.70503664       0.00000000
Si       2.58567002      -2.38503519      -0.67176650       0.00000000
Si       1.98694573      -0.31237704       3.06331296       0.00000000
Si      -1.67184270      -1.57809375       2.89921182       0.00000000
Si       0.92867679       3.25299897      -1.76548772       0.00000000
