10
Lattice="16.28999089631971 0.0 0.0 0.0 16.28999089631971 0.0 0.0 0.0 34.36671206372826" Properties=species:S:1:pos:R:3:initial_magmoms:R:1 pbc="T T T"
Si      -0.89023221      -1.40137983      -1.69342068       0.00000000
Si      -1.24652709      -0.72801639       1.98423196       0.00000000
Si      -1.50591276       1.57613895       1.26998819       0.00000000
Si       2.30250258      -0.89505405       0.74146223       0.00000000
Si       0.54237555      -2.41370559       1.93398780       0.00000000
Si      -1.68837705       2.71119357      -1.01254700       0.00000000
Si       2.67425015      -1.67024628      -1.48134358       0.00000000
Si       2.54126185       2.56604967      -0.59935579       0.00000000
Si      -2.98797696      -1.89244188       0.99031173       0.00000000
Si      -1.71460395      -3.26303361      -0.49708040       0.00000000
