10
Lattice="16.28999089631971 0.0 0.0 0.0 16.28999089631971 0.0 0.0 0.0 34.36671206372826" Properties=species:S:1:pos:R:3:initial_magmoms:R:1 pbc="T T T"
Si       1.36839258       1.37793852       1.22696104       0.00000000
Si      -1.63129200      -1.00506042       1.26809802       0.00000000
Si      -1.17237175       1.47414726      -1.34150536       0.00000000
Si       1.56436128      -1.25610561      -1.31311844       0.00000000
Si      -0.19986201      -2.68231140       2.46186079       0.00000000
Si      -2.51293283       0.10845882      -2.70390568       0.00000000
Si      -2.56959179      -2.67722892       0.02264768       0.00000000
Si      -2.74213547       2.55617793       0.13461449       0.00000000
Si       0.20355984      -2.60740998      -2.69734164       0.00000000
Si      -0.84258396       3.49974360       1.11990867       0.00000000
