10
Lattice="16.28999089631971 0.0 0.0 0.0 16.28999089631971 0.0 0.0 0.0 34.36671206372826" Properties=species:S:1:pos:R:3:initial_magmoms:R:1 pbc="T T T"
Si       1.35241209      -1.35816246       1.35593938       0.00000000
Si       1.35479043       1.35577657      -1.35710785       0.00000000
Si      -1.36003581       1.35219578       1.36030396       0.00000000
Si      -1.36003581      -1.35884664      -1.35666108       0.00000000
Si       2.68273494       0.03181437       2.72521306       0.00000000
Si       2.71236645       2.71302361      -0.00137467       0.00000000
Si      -0.00311139       2.71236223      -2.71435317       0.00000000
Si       2.71230129      -0.00179190      -2.71473120       0.00000000
Si       2.71052568      -2.71754667       0.00020620       0.00000000
Si      -0.00270414      -2.71619460      -2.71486867       0.00000000
