10
Lattice="16.28999089631971 0.0 0.0 0.0 16.28999089631971 0.0 0.0 0.0 34.36671206372826" Properties=species:S:1:pos:R:3:initial_magmoms:R:1 pbc="T T T"
Si       1.31484735      -1.25913555       1.43518906       0.00000000
Si       1.38427162       1.32426297      -1.36652434       0.00000000
Si      -1.33032285      -1.38997683      -1.36927367       0.00000000
Si      -1.48113567       1.32507288       1.62468722       0.00000000
Si      -0.21835116      -2.19838437       3.02877439       0.00000000
Si      -2.68573230       2.67452871       0.01020692       0.00000000
Si      -2.23236531      -0.59870637       3.01190033       0.00000000
Si       0.02963151       2.68120924      -2.72658773       0.00000000
Si      -2.68273494      -0.03181437      -2.72521306       0.00000000
Si      -2.68222995      -2.74427856       0.01952030       0.00000000
