10
Lattice="16.28999089631971 0.0 0.0 0.0 16.28999089631971 0.0 0.0 0.0 34.36671206372826" Properties=species:S:1:pos:R:3:initial_magmoms:R:1 pbc="T T T"
Si      -1.31484735       1.25913555      -1.43518906       0.00000000
Si       1.41736262       1.35086454       1.36779590       0.00000000
Si      -1.53319851      -0.93924882       1.59358533       0.00000000
Si       1.41055014      -1.48864536      -1.42202661       0.00000000
Si      -2.54345544      -2.71700910       0.12138329       0.00000000
Si       0.23451102      -1.04506866       3.57204368       0.00000000
Si       2.49273557      -0.13758534       2.80679968       0.00000000
Si       0.06942427       2.58339852      -2.80171340       0.00000000
Si      -2.79598302       2.58420843       0.18949816       0.00000000
Si       2.82381353       2.56165137      -0.07729078       0.00000000
