10
Lattice="16.28999089631971 0.0 0.0 0.0 16.28999089631971 0.0 0.0 0.0 34.36671206372826" Properties=species:S:1:pos:R:3:initial_magmoms:R:1 pbc="T T T"
Si      -2.05255629      -1.24268265      -0.25816289       0.00000000
Si       1.13429618      -1.64048445       1.38927511       0.00000000
Si      -0.82688040       2.23803423       0.71187247       0.00000000
Si       1.15968528      -1.11200427      -2.08124925       0.00000000
Si       2.32133707      -2.92429935      -0.32253177       0.00000000
Si      -2.12604048       1.74296484       2.63348825       0.00000000
Si      -3.51183078       0.15837138      -1.75376866       0.00000000
Si      -1.73354922      -3.43046223      -1.10416871       0.00000000
Si       2.21912547      -0.95335596       3.42117373       0.00000000
Si      -1.50646662      -2.35955763       3.12393587       0.00000000
