10
Lattice="16.28999089631971 0.0 0.0 0.0 16.28999089631971 0.0 0.0 0.0 34.36671206372826" Properties=species:S:1:pos:R:3:initial_magmoms:R:1 pbc="T T T"
Si      -1.77942838      -0.63333891       1.47012426       0.00000000
Si       1.86753447      -1.62101790       0.31875147       0.00000000
Si       0.85880880       1.92204081       1.35399564       0.00000000
Si      -0.54354843      -0.61577829      -2.37027346       0.00000000
Si      -0.42670026      -1.90273716       2.91751695       0.00000000
Si       0.94731237      -3.26093220       1.67712539       0.00000000
Si       2.31331032       0.81440226       2.89278322       0.00000000
Si      -1.67338536       2.58230709      -2.39958828       0.00000000
Si      -3.68992025      -1.40701617       0.37848738       0.00000000
Si       3.66754689      -0.51627897       1.45370727       0.00000000
