10
Lattice="16.28999089631971 0.0 0.0 0.0 16.28999089631971 0.0 0.0 0.0 34.36671206372826" Properties=species:S:1:pos:R:3:initial_magmoms:R:1 pbc="T T T"
Si      -1.33700731      -1.35531171      -1.36417021       0.00000000
Si       1.35617671      -1.35529542       1.35916985       0.00000000
Si      -1.35980918       1.35654975       1.35889492       0.00000000
Si       1.35444997       1.34759025      -1.39946141       0.00000000
Si      -2.57172415       0.01342296      -2.83322082       0.00000000
Si      -0.00064508      -2.71349046       2.71631207       0.00000000
Si       2.71877005      -2.71171485       0.00061860       0.00000000
Si      -2.71709611      -2.71362078      -0.00281807       0.00000000
Si       2.71448578       0.00128691       2.71644954       0.00000000
Si      -2.71574404       0.00156384       2.71610587       0.00000000
