10
Lattice="16.28999089631971 0.0 0.0 0.0 16.28999089631971 0.0 0.0 0.0 34.36671206372826" Properties=species:S:1:pos:R:3:initial_magmoms:R:1 pbc="T T T"
Si       1.36054080       1.35205371      -1.35477091       0.00000000
Si      -1.35858600      -1.36008468      -1.35209031       0.00000000
Si       1.25149554      -1.47492918       1.34143662       0.00000000
Si      -1.45793871       1.24152606       1.39704199       0.00000000
Si      -2.40194421      -0.68501079       2.46526310       0.00000000
Si      -0.19096767      -2.80681587       2.57231547       0.00000000
Si       2.70632286       2.70262503       0.04608579       0.00000000
Si      -0.00123804       2.70923877      -2.71198186       0.00000000
Si       2.71282257      -0.00599472      -2.71321907       0.00000000
Si      -2.71587206      -0.00441459      -2.71342527       0.00000000
