10
Lattice="16.28999089631971 0.0 0.0 0.0 16.28999089631971 0.0 0.0 0.0 34.36671206372826" Properties=species:S:1:pos:R:3:initial_magmoms:R:1 pbc="T T T"
Si       1.33629657       1.35593073       1.37889636       0.00000000
Si      -1.36131018       1.35435060      -1.35927296       0.00000000
Si       1.35536076      -1.35971001      -1.36044142       0.00000000
Si      -1.36403061      -1.35858600       1.39363969       0.00000000
Si       2.61329411      -0.11376936       2.75002584       0.00000000
Si       2.71432469       2.71230129      -0.00024057       0.00000000
Si       2.71264682      -2.71538010       0.00089354       0.00000000
Si      -0.00217874       2.71261080      -2.71675884       0.00000000
Si       2.71318439      -0.00226431      -2.71672447       0.00000000
Si      -2.71942377       2.71373481      -0.00353977       0.00000000
