10
Lattice="16.28999089631971 0.0 0.0 0.0 16.28999089631971 0.0 0.0 0.0 34.36671206372826" Properties=species:S:1:pos:R:3:initial_magmoms:R:1 pbc="T T T"
Si       1.45793871      -1.24152606      -1.39704199       0.00000000
Si      -1.27699754       1.46970009      -1.37112948       0.00000000
Si       1.20148524       1.42607547       1.50069205       0.00000000
Si      -0.94400550      -1.92653685       1.06822111       0.00000000
Si       2.11243833      -0.63182394       2.44783917       0.00000000
Si       0.55078119      -2.51965575       2.75349688       0.00000000
Si       0.09935271      -2.60161074      -2.74913230       0.00000000
Si      -2.61329411       0.11376936      -2.75002584       0.00000000
Si       2.70943425      -2.71645524      -0.05560537       0.00000000
Si       2.69703756       2.77707033       0.14423717       0.00000000
