10
Lattice="16.28999089631971 0.0 0.0 0.0 16.28999089631971 0.0 0.0 0.0 34.36671206372826" Properties=species:S:1:pos:R:3:initial_magmoms:R:1 pbc="T T T"
Si       0.71618985      -1.52868618      -1.57822340       0.00000000
Si      -1.49478669       0.59311890      -1.68527577       0.00000000
Si       1.56165714       1.88783181      -0.30565771       0.00000000
Si      -1.34682462      -1.20510162       1.96316516       0.00000000
Si       2.15865306      -0.19679949      -2.80910225       0.00000000
Si       2.73127914      -1.03876443       2.25916581       0.00000000
Si      -0.91224000       0.62465634       3.54090742       0.00000000
Si      -0.55078119       2.51965575      -2.75349688       0.00000000
Si       3.50660169       0.94708431      -1.32195069       0.00000000
Si       1.44366867       0.45440955       3.65857911       0.00000000
