10
Lattice="16.28999089631971 0.0 0.0 0.0 16.28999089631971 0.0 0.0 0.0 34.36671206372826" Properties=species:S:1:pos:R:3:initial_magmoms:R:1 pbc="T T T"
Si       1.20536389      -2.01450285       0.46261057       0.00000000
Si       1.03330891      -0.24290019      -2.15733719       0.00000000
Si       0.30496835       1.62896742       1.78480182       0.00000000
Si      -2.25022471       0.65837664      -0.70197485       0.00000000
Si       0.28913935      -2.15456427       2.62173483       0.00000000
Si      -1.08365804       3.03689583      -1.35827632       0.00000000
Si       0.10338286       1.75308093      -3.07008320       0.00000000
Si      -2.06829799      -2.90465361      -0.60062736       0.00000000
Si      -1.98694573       0.31237704      -3.06331296       0.00000000
Si       0.00117125       3.72402432       0.67362230       0.00000000
