10
Lattice="16.28999089631971 0.0 0.0 0.0 16.28999089631971 0.0 0.0 0.0 34.36671206372826" Properties=species:S:1:pos:R:3:initial_magmoms:R:1 pbc="T T T"
Si      -1.35464011       1.35694627      -1.36006339       0.00000000
Si      -1.38427162      -1.32426297       1.36652434       0.00000000
Si       1.35963131      -1.35803214      -1.35865435       0.00000000
Si       1.36943301       1.34899186       1.36429050       0.00000000
Si      -0.05288992       2.64473756       2.72177638       0.00000000
Si      -0.06942427      -2.58339852       2.80171340       0.00000000
Si      -2.70964231       2.71773305      -0.00051550       0.00000000
Si      -2.71221613      -0.00030077      -2.71579657       0.00000000
Si      -2.71459447      -2.71423980      -0.00274934       0.00000000
Si       0.00294335       2.71496375      -2.71617461       0.00000000
