10
Lattice="16.28999089631971 0.0 0.0 0.0 16.28999089631971 0.0 0.0 0.0 34.36671206372826" Properties=species:S:1:pos:R:3:initial_magmoms:R:1 pbc="T T T"
Si       1.07537295      -1.48844988       1.43900377       0.00000000
Si       1.40645091       1.21078683      -1.44508668       0.00000000
Si      -1.41736262      -1.35086454      -1.36779590       0.00000000
Si      -0.61350421       1.91661365       1.33428834       0.00000000
Si      -1.18285160      -2.39593320       2.20424778       0.00000000
Si      -2.95056113      -2.29011336       0.22578942       0.00000000
Si       2.74082997       2.60246338      -0.04371448       0.00000000
Si      -2.69879918       2.66427090       0.17056209       0.00000000
Si       2.47167030      -2.88313452       0.08199902       0.00000000
Si       0.02149465       2.58152584      -2.80521881       0.00000000
