10
Lattice="16.28999089631971 0.0 0.0 0.0 16.28999089631971 0.0 0.0 0.0 34.36671206372826" Properties=species:S:1:pos:R:3:initial_magmoms:R:1 pbc="T T T"
Si       2.25822454       0.90748332      -0.76524401       0.00000000
Si      -1.15968528       1.11200427       2.08124925       0.00000000
Si      -1.76770953       0.10581984      -1.97845835       0.00000000
Si       1.16165179      -1.81229508       1.75871747       0.00000000
Si       1.18285160       2.39593320      -2.20424778       0.00000000
Si      -0.02538911      -0.52848018       3.47052436       0.00000000
Si      -3.21224157      -0.13067838       1.82308636       0.00000000
Si      -0.23451102       1.04506866      -3.57204368       0.00000000
Si      -0.92867679      -3.25299897       1.76548772       0.00000000
Si      -2.89323450      -2.31845796       0.97708054       0.00000000
