10
Lattice="10.86 0.0 0.0 0.0 10.86 0.0 0.0 0.0 10.86" Properties=species:S:1:pos:R:3:initial_magmoms:R:1 pbc="T T T"
Si      -1.38416130       1.23189324      -1.17077316       0.00000000
Si       1.29697722       1.34036292       1.27678848       0.00000000
Si       1.33083870      -1.48310676      -1.17077316       0.00000000
Si      -1.38416130      -1.48310676       1.54422684       0.00000000
Si       0.01697418       2.68555854      -2.32058652       0.00000000
Si       2.59380240      -0.08047260       2.61122184       0.00000000
Si       2.67603432      -0.25566612      -2.57178918       0.00000000
Si      -2.74166130      -0.12560676      -2.52827316       0.00000000
Si      -2.74166130       2.58939324       0.18672684       0.00000000
Si      -0.02666130      -2.84060676      -2.52827316       0.00000000
