10
Lattice="10.86 0.0 0.0 0.0 10.86 0.0 0.0 0.0 10.86" Properties=species:S:1:pos:R:3:initial_magmoms:R:1 pbc="T T T"
Si      -1.18388118      -1.28683398       1.29570660       0.00000000
Si      -1.18388118       1.42816602      -1.41929340       0.00000000
Si       1.53111882       1.42816602       1.29570660       0.00000000
Si       1.49725734      -1.17836430      -1.68673176       0.00000000
Si      -2.54138118      -2.64433398      -0.06179340       0.00000000
Si      -2.54138118       0.07066602       2.65320660       0.00000000
Si       0.17361882      -2.64433398       2.65320660       0.00000000
Si      -2.54138118       0.07066602      -2.77679340       0.00000000
Si      -2.54138118       2.78566602      -0.06179340       0.00000000
Si       2.79408252      -2.59919982      -0.35229840       0.00000000
