10
Lattice="16.290000149 0.0 0.0 0.0 16.290000149 0.0 0.0 0.0 29.1751946751" Properties=species:S:1:pos:R:3:initial_magmoms:R:1 pbc="T T T"
H        0.45137961       1.28396152      -0.66356063       0.00000000
Si      -0.81248005       0.98399746       1.94289291       0.00000000
Si      -1.87711301      -0.70892452      -1.27530611       0.00000000
Si       2.01220598      -1.36260964      -0.07702251       0.00000000
H        0.97060708      -0.25604622      -2.48155453       0.00000000
H       -0.65637298      -2.66374082      -1.05345793       0.00000000
Si       3.17030770       0.69141277      -0.67581421       0.00000000
Si      -2.31474386       2.29371347       0.64652231       0.00000000
Si       0.78925051      -2.94332610      -1.49041482       0.00000000
Si       2.00549450       0.84957238      -2.69529201       0.00000000
