10
Lattice="16.290000149 0.0 0.0 0.0 16.290000149 0.0 0.0 0.0 29.1751946751" Properties=species:S:1:pos:R:3:initial_magmoms:R:1 pbc="T T T"
Si       1.22324869      -1.53261208       1.24236731       0.00000000
Si      -1.38764737      -1.34615674      -1.29864627       0.00000000
Si      -1.05816583       1.46367280       1.47991175       0.00000000
Si       1.37598373       1.31914792      -1.35635480       0.00000000
Si       0.75722437       2.21850254       2.86243670       0.00000000
Si      -2.37144935       0.10744884       2.86809669       0.00000000
Si      -0.01912446       2.60214833      -2.71618145       0.00000000
Si      -0.02647125      -2.69980688      -2.62649690       0.00000000
Si      -2.50439204       2.81334819       0.19433597       0.00000000
Si      -2.74348038       0.00853596      -2.60073520       0.00000000
