10
Lattice="16.290000149 0.0 0.0 0.0 16.290000149 0.0 0.0 0.0 29.1751946751" Properties=species:S:1:pos:R:3:initial_magmoms:R:1 pbc="T T T"
Si       1.32608746       1.38243457      -1.37622603       0.00000000
Si       1.34890975      -1.36244674       1.37617935       0.00000000
Si      -1.36352188       1.34775316       1.39027972       0.00000000
Si      -1.38979765      -1.37771047      -1.34147837       0.00000000
Si       2.52543872      -0.09011628      -2.80528541       0.00000000
Si      -2.64743453      -2.74771578       0.08354317       0.00000000
Si      -2.84056878       0.03994308      -2.55893007       0.00000000
Si       2.72083727       0.04378752       2.68837457       0.00000000
Si      -0.07226244       2.80751637      -2.60091317       0.00000000
Si       2.63472833       2.82882369      -0.00621432       0.00000000
