10
Lattice="16.290000149 0.0 0.0 0.0 16.290000149 0.0 0.0 0.0 29.1751946751" Properties=species:S:1:pos:R:3:initial_magmoms:R:1 pbc="T T T"
Si       1.08302437      -1.42042285      -1.49782532       0.00000000
Si      -1.54481329       1.32336703      -1.18725537       0.00000000
Si      -1.05511960      -1.76292011       1.18156621       0.00000000
Si       2.12755547       0.96958081       0.68051142       0.00000000
Si       0.22144626       0.80643646       3.39053690       0.00000000
Si       2.37807938      -2.71451675      -0.07156675       0.00000000
Si      -0.20025297       2.70225038      -2.49900130       0.00000000
Si      -1.39898521      -0.88097950       3.31707376       0.00000000
Si       2.49785975      -0.09446571      -2.73710006       0.00000000
Si       0.54644805      -3.53923059       1.09188166       0.00000000
