10
Lattice="16.290000149 0.0 0.0 0.0 16.290000149 0.0 0.0 0.0 29.1751946751" Properties=species:S:1:pos:R:3:initial_magmoms:R:1 pbc="T T T"
Si      -1.36764325      -1.35812989      -1.32881342       0.00000000
Si      -1.43752735       1.33657822       1.27950734       0.00000000
Si       1.35345466       1.35141841      -1.36192726       0.00000000
Si       1.36278883      -1.32620149       1.38080361       0.00000000
Si      -0.08755875       2.67804344       2.59367481       0.00000000
Si      -0.09490554      -2.62391177       2.68335936       0.00000000
Si       0.00350235      -2.71485884      -2.66150713       0.00000000
Si      -2.71083521       0.02469564      -2.67268123       0.00000000
Si       2.73206108      -0.01466100      -2.67367319       0.00000000
Si       2.73038321       2.69145011      -0.02914602       0.00000000
