10
Lattice="16.290000149 0.0 0.0 0.0 16.290000149 0.0 0.0 0.0 29.1751946751" Properties=species:S:1:pos:R:3:initial_magmoms:R:1 pbc="T T T"
Si       1.25763688       1.37000530      -1.42502154       0.00000000
Si       1.37487601      -1.26412030       1.41785319       0.00000000
Si      -0.80938495      -1.85932433      -1.18180370       0.00000000
Si      -1.42664563       1.37619550       1.29341224       0.00000000
Si      -2.68372865      -2.66211182       0.01350228       0.00000000
Si      -0.05229090      -2.65496051       2.69897975       0.00000000
Si       2.66183489      -2.71383257       0.09053355       0.00000000
Si       2.64743453       2.74771578      -0.08354317       0.00000000
Si      -0.08311158       2.74517454       2.65737593       0.00000000
Si      -0.19313424       2.78765886      -2.64247324       0.00000000
