10
Lattice="16.290000149 0.0 0.0 0.0 16.290000149 0.0 0.0 0.0 29.1751946751" Properties=species:S:1:pos:R:3:initial_magmoms:R:1 pbc="T T T"
Si       1.43336037      -1.21378420       1.38436299       0.00000000
Si      -1.44210159       1.24773256       1.36108118       0.00000000
Si      -1.35963900      -1.40691844      -1.31498437       0.00000000
Si       1.36113051       1.43050636      -1.30459801       0.00000000
H       -1.16678592      -1.41169141       3.04872032       0.00000000
Si      -0.05568574      -2.40715703       2.77289803       0.00000000
Si       2.57579437      -2.63270837      -0.09090991       0.00000000
Si      -0.02237106       2.68271867       2.53141494       0.00000000
Si       2.55888535       0.03381804      -2.78494738       0.00000000
Si      -2.73261169       2.66362679       0.00425958       0.00000000
