10
Lattice="16.290000149 0.0 0.0 0.0 16.290000149 0.0 0.0 0.0 29.1751946751" Properties=species:S:1:pos:R:3:initial_magmoms:R:1 pbc="T T T"
Si       1.37692855       1.34003170       1.33278124       0.00000000
Si       1.37860642      -1.36607941      -1.31174593       0.00000000
Si      -1.35345466      -1.35141841       1.36192726       0.00000000
Si      -1.35083197       1.37643985      -1.34217566       0.00000000
Si      -0.05729193       2.66206295       2.61494352       0.00000000
Si      -0.00001629      -2.70151733      -2.65619725       0.00000000
Si       2.73476523      -0.01049076      -2.66950114       0.00000000
Si      -2.71593398       0.02096523      -2.68904852       0.00000000
Si       0.00933417      -2.67761990       2.74273088       0.00000000
Si       2.72601749       2.69788466      -0.02042264       0.00000000
