10
Lattice="16.290000149 0.0 0.0 0.0 16.290000149 0.0 0.0 0.0 29.1751946751" Properties=species:S:1:pos:R:3:initial_magmoms:R:1 pbc="T T T"
Si       1.25014348      -1.37028223       1.41250830       0.00000000
Si      -1.28695888       1.44971227       1.32731965       0.00000000
Si       1.90752644       0.79052113      -1.12078553       0.00000000
Si      -1.83819620      -0.88115869      -1.18774843       0.00000000
H        0.69942745      -1.82889461      -1.92724626       0.00000000
Si       1.24949188       1.21521772      -3.25028299       0.00000000
Si       2.67012650       0.05908383       2.64783272       0.00000000
Si      -2.71412579       0.05887206       2.60844621       0.00000000
Si       2.74771578      -2.60600255       0.13236786       0.00000000
Si      -3.47121984       0.85450825      -1.27233724       0.00000000
