10
Lattice="16.290000149 0.0 0.0 0.0 16.290000149 0.0 0.0 0.0 29.1751946751" Properties=species:S:1:pos:R:3:initial_magmoms:R:1 pbc="T T T"
Si      -0.83070856       1.24258981      -1.71676473       0.00000000
Si      -1.83259244      -1.02159478       0.94249299       0.00000000
Si       1.03884589       1.85322209       0.95351538       0.00000000
Si       1.74601109      -1.54308655      -0.44962213       0.00000000
H       -1.00944244       2.63033003      -1.10609873       0.00000000
Si      -0.42668397      -2.38570310       2.19725685       0.00000000
Si       1.49648086      -1.03017961      -2.74767024       0.00000000
Si       2.45545688       0.51086222       2.20905238       0.00000000
Si       1.06274332       1.25763688      -3.06063255       0.00000000
Si       0.99540046      -0.92644489       3.42305849       0.00000000
