10
Lattice="16.290000149 0.0 0.0 0.0 16.290000149 0.0 0.0 0.0 29.1751946751" Properties=species:S:1:pos:R:3:initial_magmoms:R:1 pbc="T T T"
Si       1.43262406      -1.22611573      -1.28566330       0.00000000
Si      -1.22324869       1.53261208      -1.24236731       0.00000000
Si       1.48563172       1.01408509       1.46987548       0.00000000
Si      -1.12202263      -1.43816266       1.55194531       0.00000000
H        2.07640487      -2.06962823      -0.20731893       0.00000000
Si      -1.99581824       0.34178049       2.83930077       0.00000000
Si      -0.12289176       1.80299351       2.99436693       0.00000000
Si       2.46552410      -0.84525553       2.36482458       0.00000000
Si      -0.00316026      -2.55624311      -2.50051841       0.00000000
Si       0.69840118      -2.32823198       2.69960994       0.00000000
