10
Lattice="16.290000149 0.0 0.0 0.0 16.290000149 0.0 0.0 0.0 29.1751946751" Properties=species:S:1:pos:R:3:initial_magmoms:R:1 pbc="T T T"
Si       1.33327135       1.33993070      -1.32894762       0.00000000
Si      -1.33053463       1.41976799       1.28572165       0.00000000
Si       1.43381323      -1.34632290       1.26188552       0.00000000
Si      -1.36039420      -1.28242345      -1.41018595       0.00000000
Si       0.05403393      -2.68990582       2.59694243       0.00000000
Si      -2.67895568       0.04613491       2.62328763       0.00000000
Si       0.05520681       2.76993208       2.61074230       0.00000000
Si       2.78073561       0.04169426       2.60096861       0.00000000
Si      -2.71033022      -2.67742768      -0.09948741       0.00000000
Si      -0.04059468      -2.77060648      -2.62011045       0.00000000
