10
Lattice="16.290000149 0.0 0.0 0.0 16.290000149 0.0 0.0 0.0 29.1751946751" Properties=species:S:1:pos:R:3:initial_magmoms:R:1 pbc="T T T"
Si      -1.41921739       1.36998901      -1.25607966       0.00000000
Si      -1.30144069      -1.23948982       1.49837965       0.00000000
Si       1.18382689      -1.45068967      -1.41213777       0.00000000
Si       1.85526812       0.93172285       1.10635256       0.00000000
Si       3.45683577      -0.84458764       1.01666801       0.00000000
Si      -0.04328253       2.69237864      -2.61786104       0.00000000
Si       2.57893508      -2.73369008      -0.05231112       0.00000000
Si       2.56754837      -0.11525175      -2.75279632       0.00000000
Si       0.14478552      -2.58916520       2.78395543       0.00000000
Si      -2.77640247      -0.01101204      -2.60514066       0.00000000
