10
Lattice="16.290000149 0.0 0.0 0.0 16.290000149 0.0 0.0 0.0 29.1751946751" Properties=species:S:1:pos:R:3:initial_magmoms:R:1 pbc="T T T"
Si       0.85056607      -1.87998005      -1.10743204       0.00000000
Si       1.49003002       1.24282927       1.38185392       0.00000000
Si      -1.39087279       1.32299236      -1.43512783       0.00000000
Si      -1.30613221      -1.37218816       1.48997719       0.00000000
H        1.38631159      -1.62864163      -2.49407069       0.00000000
H        2.65243556       0.13263318      -2.06723759       0.00000000
Si       0.01049076       2.54100708       2.72397123       0.00000000
Si      -2.79321375       2.48668481       0.05397411       0.00000000
H       -0.19632708      -0.79843807      -3.67091052       0.00000000
Si       2.54078390      -2.81048115       0.20364286       0.00000000
