10
Lattice="16.290000149 0.0 0.0 0.0 16.290000149 0.0 0.0 0.0 29.1751946751" Properties=species:S:1:pos:R:3:initial_magmoms:R:1 pbc="T T T"
Si      -1.67853791       1.67837501       0.24924369       0.00000000
Si       0.35839629      -0.22533957       2.36435778       0.00000000
Si       1.63980029       1.05107968      -1.43655741       0.00000000
Si      -1.06266187      -1.69606595      -1.38342938       0.00000000
H        1.91511595      -1.60834429       0.25108173       0.00000000
H        0.53975287       2.46194030       1.37321806       0.00000000
H       -1.08722719       0.05424570       2.80131467       0.00000000
Si      -2.40863942      -0.28272924      -2.75475106       0.00000000
Si       0.34929018       2.46697391      -2.79337901       0.00000000
Si      -3.53778078       0.83403172      -1.00423938       0.00000000
