10
Lattice="16.290000149 0.0 0.0 0.0 16.290000149 0.0 0.0 0.0 29.1751946751" Properties=species:S:1:pos:R:3:initial_magmoms:R:1 pbc="T T T"
H        1.31220838      -0.46076265       0.60474344       0.00000000
Si      -1.25929846       0.24602787       1.93796231       0.00000000
Si       0.27007191       2.03009240      -1.19632886       0.00000000
Si      -0.97202431      -1.99616033      -0.87802748       0.00000000
H        1.88335208      -0.57943531      -1.72734658       0.00000000
Si       3.06836814      -1.09296127      -0.92829634       0.00000000
H       -0.88777243      -2.82045063       1.69729613       0.00000000
Si      -1.92437030       2.75242359      -0.72765853       0.00000000
Si      -3.32004864      -0.44909901       1.03551518       0.00000000
H        1.07618257       0.16576704      -3.37971290       0.00000000
