10
Lattice="16.290000149 0.0 0.0 0.0 16.290000149 0.0 0.0 0.0 29.1751946751" Properties=species:S:1:pos:R:3:initial_magmoms:R:1 pbc="T T T"
Si      -1.30732138      -1.31422834      -1.44577677       0.00000000
Si      -1.32258511       1.39476610       1.36469891       0.00000000
Si       1.26035731      -1.39155697       1.43159763       0.00000000
Si       1.36673101       1.35928648      -1.37651486       0.00000000
Si      -2.66245391      -2.66931200      -0.11188687       0.00000000
Si       2.66095523       0.02479012       2.68957367       0.00000000
Si       2.69029352      -2.67385691       0.01960573       0.00000000
Si      -2.67164147       2.72811890      -0.04154548       0.00000000
Si       0.07662816       2.76522753       2.68041266       0.00000000
Si      -2.68203449       0.03237963      -2.78208821       0.00000000
