10
Lattice="16.290000149 0.0 0.0 0.0 16.290000149 0.0 0.0 0.0 29.1751946751" Properties=species:S:1:pos:R:3:initial_magmoms:R:1 pbc="T T T"
Si       1.36023456       1.35027811      -1.35372903       0.00000000
Si       1.37018775      -1.34454403       1.35521697       0.00000000
Si      -1.33835683       1.36348930       1.37278043       0.00000000
Si      -1.34804312      -1.37829691      -1.35162842       0.00000000
Si      -2.68853095      -0.04634505       2.67781607       0.00000000
Si       2.66949445      -2.70014897      -0.06322265       0.00000000
Si      -0.02871113       2.69931818      -2.68420544       0.00000000
Si      -2.69082784      -0.02067201      -2.72102453       0.00000000
Si       2.67842137      -0.01231524      -2.74506489       0.00000000
Si       2.72737282       0.03645702       2.70427797       0.00000000
