10
Lattice="16.290000149 0.0 0.0 0.0 16.290000149 0.0 0.0 0.0 29.1751946751" Properties=species:S:1:pos:R:3:initial_magmoms:R:1 pbc="T T T"
Si      -0.47763909       2.02939193      -1.05908874       0.00000000
Si       1.59366700       0.81370180       1.56096044       0.00000000
Si       1.29156895      -1.50456070      -1.32029426       0.00000000
Si      -1.86911462      -0.89702515       1.27551034       0.00000000
H       -2.79656949      -0.73479304      -1.25465007       0.00000000
H        1.03796623       1.18154629      -2.76221991       0.00000000
H       -1.07683417       1.93438865      -2.45917716       0.00000000
Si      -2.19221048       2.47280573       0.46674476       0.00000000
Si       2.22449726      -2.54567090       0.51266652       0.00000000
Si       3.29129679      -0.78578074       1.58082875       0.00000000
