10
Lattice="16.290000149 0.0 0.0 0.0 16.290000149 0.0 0.0 0.0 29.1751946751" Properties=species:S:1:pos:R:3:initial_magmoms:R:1 pbc="T T T"
Si       0.28591068      -0.79188949      -2.16421594       0.00000000
Si      -2.25979280       0.53677179      -0.11360821       0.00000000
Si       1.05057958      -1.50263848       1.48207071       0.00000000
Si       1.14911779       2.08573415       0.05598720       0.00000000
H       -0.10259442       2.67338450      -0.66008878       0.00000000
Si      -2.53972017       1.28705988       2.09034435       0.00000000
Si       2.57447651      -0.16223211       2.65590550       0.00000000
Si       3.33678336       1.33476189       0.93261427       0.00000000
Si       2.40761804      -2.85021246       0.14952287       0.00000000
Si       1.94281546      -2.43550163      -2.06437842       0.00000000
