10
Lattice="16.290000149 0.0 0.0 0.0 16.290000149 0.0 0.0 0.0 29.1751946751" Properties=species:S:1:pos:R:3:initial_magmoms:R:1 pbc="T T T"
H       -0.88309720       0.85204846      -0.88870561       0.00000000
Si       1.03128733      -1.48594123      -1.47183022       0.00000000
Si      -1.39476610      -1.23142627       1.42637527       0.00000000
Si       1.89724745       1.30010491       0.63254740       0.00000000
Si       1.94500973       0.35119611      -2.64096780       0.00000000
Si       0.00948078       1.83927134      -2.95734361       0.00000000
H       -2.78904351       0.42862248      -2.12978921       0.00000000
Si       2.14677767       0.78719797       2.93059550       0.00000000
Si       0.00358380      -2.65650806       2.65106241       0.00000000
Si       2.53355114      -2.79565725      -0.17545962       0.00000000
