10
Lattice="16.290000149 0.0 0.0 0.0 16.290000149 0.0 0.0 0.0 29.1751946751" Properties=species:S:1:pos:R:3:initial_magmoms:R:1 pbc="T T T"
Si      -1.56748083       1.07072542      -1.36385283       0.00000000
Si       1.38580660      -1.47926233      -1.21138326       0.00000000
Si      -0.85108735      -1.47864331       1.63842058       0.00000000
Si       0.42319791       1.81066610       1.48665122       0.00000000
H        0.33945102      -1.11029383       2.53762926       0.00000000
Si      -1.88755816       1.99405892       2.08132921       0.00000000
Si      -0.25309773       2.55637343      -2.63691245       0.00000000
Si      -3.05237136       2.15221853       0.06185141       0.00000000
Si       2.69909012      -0.12303837      -2.59956820       0.00000000
Si      -0.11174940      -2.82577746      -2.51090478       0.00000000
