10
Lattice="16.290000149 0.0 0.0 0.0 16.290000149 0.0 0.0 0.0 29.1751946751" Properties=species:S:1:pos:R:3:initial_magmoms:R:1 pbc="T T T"
Si       2.24360543      -0.50640723       0.29014731       0.00000000
Si      -1.56898765      -1.68637340      -0.45323665       0.00000000
Si      -0.72847252       0.63719965       2.17872652       0.00000000
Si      -0.08498493       1.46722402      -1.92515440       0.00000000
H        0.28825155      -1.07051365      -2.81073826       0.00000000
Si      -2.83022463      -0.57889774      -2.04853629       0.00000000
Si      -1.30636027       3.32247585      -1.25960985       0.00000000
Si       1.31095405      -2.20602114      -2.83606232       0.00000000
Si       3.17627962      -1.32293372      -1.70435652       0.00000000
H       -0.00265527       3.87444622      -0.35202790       0.00000000
