10
Lattice="16.290000149 0.0 0.0 0.0 16.290000149 0.0 0.0 0.0 29.1751946751" Properties=species:S:1:pos:R:3:initial_magmoms:R:1 pbc="T T T"
Si      -0.10972944       2.30591957       0.23421846       0.00000000
Si       1.60011784       0.07398918      -1.79231973       0.00000000
Si       0.28833300      -0.88547554       2.24135516       0.00000000
Si      -2.12755547      -0.96958081      -0.68051142       0.00000000
H        1.09444366      -2.74980090       0.05797111       0.00000000
H        2.53257374      -1.83920618       0.60649395       0.00000000
Si      -1.85626181       1.97993386       1.72620874       0.00000000
Si      -1.90610921      -0.16314435       2.71002548       0.00000000
Si       3.17856999      -1.01120176      -0.46931218       0.00000000
Si      -1.04453110      -2.39000366      -2.17833674       0.00000000
