10
Lattice="16.290000149 0.0 0.0 0.0 16.290000149 0.0 0.0 0.0 29.1751946751" Properties=species:S:1:pos:R:3:initial_magmoms:R:1 pbc="T T T"
Si       1.29673288       1.28441275       1.50576681       0.00000000
Si      -1.33612210      -1.36433150       1.40837709       0.00000000
Si       1.47953926      -1.29817780      -1.34211731       0.00000000
Si      -1.35356869       1.38707722      -1.40000089       0.00000000
Si      -0.01049076      -2.54100708      -2.72397123       0.00000000
Si      -2.60811047       2.72800976       0.08362019       0.00000000
Si       2.69485472      -2.71293174       0.10838672       0.00000000
Si       2.28468881       3.07135410       0.35219712       0.00000000
Si       2.36820764       2.37925715      -1.87771553       0.00000000
Si       3.09702225       0.18896726      -2.27966219       0.00000000
