10
Lattice="16.290000149 0.0 0.0 0.0 16.290000149 0.0 0.0 0.0 29.1751946751" Properties=species:S:1:pos:R:3:initial_magmoms:R:1 pbc="T T T"
H       -1.02270250       1.13550749       0.02532407       0.00000000
Si      -0.83676844      -1.93196470       1.01564688       0.00000000
Si       0.27992736      -0.75028808      -2.20395256       0.00000000
Si       1.86532556       0.88308742       1.13170580       0.00000000
Si       2.53972017      -1.28705988      -2.09034435       0.00000000
Si      -2.39844188      -2.71707754      -0.57772721       0.00000000
Si       0.93265138       1.69961391       3.12620963       0.00000000
H        0.13647762       3.29329720      -1.69799633       0.00000000
Si      -2.87994171       0.51964775       2.38282567       0.00000000
Si       0.93489940      -3.09256205       2.04436424       0.00000000
