10
Lattice="16.290000149 0.0 0.0 0.0 16.290000149 0.0 0.0 0.0 29.1751946751" Properties=species:S:1:pos:R:3:initial_magmoms:R:1 pbc="T T T"
Si      -1.43422048       1.32203125       1.28216228       0.00000000
Si      -1.37692855      -1.34003170      -1.33278124       0.00000000
Si       1.34908894       1.35785296      -1.35320388       0.00000000
Si       1.35674524      -1.33473745       1.37727342       0.00000000
Si      -0.00835677       2.71150310       2.46191963       0.00000000
Si       0.00167787      -2.70611111      -2.64452717       0.00000000
Si       2.72818407       0.01089801      -2.67460680       0.00000000
Si      -2.72776052       0.03640815      -2.67495690       0.00000000
Si      -0.01277136       2.75214666      -2.65823951       0.00000000
Si       0.01586646      -2.66761784       2.75078323       0.00000000
