10
Lattice="16.290000149 0.0 0.0 0.0 16.290000149 0.0 0.0 0.0 29.1751946751" Properties=species:S:1:pos:R:3:initial_magmoms:R:1 pbc="T T T"
Si      -1.34621864       1.33527502      -1.37984083       0.00000000
Si       1.31952259       1.47189925       1.26783726       0.00000000
Si      -1.41357779      -1.29659116       1.38500484       0.00000000
Si       1.41701824      -1.35366155      -1.34080442       0.00000000
H        2.26232264       0.57937015       2.04354734       0.00000000
H        0.24931845       0.20290824       3.40903397       0.00000000
Si      -2.64382197      -2.65767361      -0.06068440       0.00000000
Si      -0.02855637      -2.76485286       2.53351556       0.00000000
Si      -2.61591078       2.69768918       0.04376279       0.00000000
Si       0.07408692      -2.70049106      -2.72954369       0.00000000
