10
Lattice="16.290000149 0.0 0.0 0.0 16.290000149 0.0 0.0 0.0 29.1751946751" Properties=species:S:1:pos:R:3:initial_magmoms:R:1 pbc="T T T"
Si       1.26123697      -1.10747566       1.59529964       0.00000000
Si      -1.81087787      -1.32514753      -0.60637725       0.00000000
Si       1.21129183       1.32791194      -1.49096915       0.00000000
Si      -1.32768388       1.54943965       1.15863451       0.00000000
Si      -0.63221491      -1.12252273       2.93916746       0.00000000
H        3.11847618      -0.49161591      -0.76220196       0.00000000
Si      -0.19279215      -2.85612573      -1.68162905       0.00000000
Si       2.74523970       2.04612176       0.12338190       0.00000000
Si      -3.03407769       0.54667611      -1.55743024       0.00000000
Si      -2.53623899      -1.66943342       1.65747198       0.00000000
