10
Lattice="16.290000149 0.0 0.0 0.0 16.290000149 0.0 0.0 0.0 29.1751946751" Properties=species:S:1:pos:R:3:initial_magmoms:R:1 pbc="T T T"
Si       1.05816583      -1.46367280      -1.47991175       0.00000000
Si      -1.31328352      -1.35622396       1.38818494       0.00000000
Si      -1.44622621       1.34967538      -1.28557578       0.00000000
Si       1.81539020       0.75482974       1.38252495       0.00000000
Si       2.15852276      -1.19329138       2.75682250       0.00000000
Si       0.28559628      -2.65450439       2.60175634       0.00000000
Si       2.43414956      -0.14452488      -2.83626655       0.00000000
Si      -2.69909012       0.12303837       2.59956820       0.00000000
Si       2.28141452      -2.99628489      -0.23754444       0.00000000
Si      -0.14478552       2.58916520      -2.78395543       0.00000000
