10
Lattice="16.290000149 0.0 0.0 0.0 16.290000149 0.0 0.0 0.0 29.1751946751" Properties=species:S:1:pos:R:3:initial_magmoms:R:1 pbc="T T T"
Si      -1.37860642       1.36607941       1.31174593       0.00000000
Si      -1.37862271      -1.33543792      -1.34445132       0.00000000
Si       1.35615880       1.35558865      -1.35775521       0.00000000
Si       1.35469270      -1.35141841       1.36930859       0.00000000
Si      -0.00167787       2.70611111       2.64452717       0.00000000
Si      -0.00767259      -2.68120370      -2.68312595       0.00000000
Si      -2.73206108       0.01466100       2.67367319       0.00000000
Si       2.71492400      -2.70309746       0.01619223       0.00000000
Si       0.00034209       2.72595233      -2.69683829       0.00000000
Si      -2.72855873      -2.70019784       0.01216606       0.00000000
