10
Lattice="16.290000149 0.0 0.0 0.0 16.290000149 0.0 0.0 0.0 29.1751946751" Properties=species:S:1:pos:R:3:initial_magmoms:R:1 pbc="T T T"
Si      -1.37114560       1.35672895       1.33269372       0.00000000
Si      -1.37327959      -1.34739478      -1.34325514       0.00000000
Si       1.34993602       1.36475992      -1.35661738       0.00000000
Si       1.36876726      -1.34451145       1.36420293       0.00000000
Si      -0.00350235       2.71485884       2.66150713       0.00000000
Si      -0.01327635      -2.70480303      -2.68274668       0.00000000
Si       2.71898021      -2.69419172      -0.00910266       0.00000000
Si       2.72088614       0.01899414      -2.69529201       0.00000000
Si      -2.70326036       0.02257794      -2.71591887       0.00000000
Si      -2.71761185      -2.70269673       0.02246490       0.00000000
