10
Lattice="16.290000149 0.0 0.0 0.0 16.290000149 0.0 0.0 0.0 29.1751946751" Properties=species:S:1:pos:R:3:initial_magmoms:R:1 pbc="T T T"
Si      -1.36412461      -1.34970796       1.34984873       0.00000000
Si      -1.38960217       1.34834938      -1.33351062       0.00000000
Si       1.31994613      -1.36849033      -1.38412959       0.00000000
Si       1.36158337       1.34277983       1.37794444       0.00000000
Si      -0.06410115       2.70464501       2.67691164       0.00000000
Si       0.00983916      -2.70298343       2.69348315       0.00000000
Si       2.68967450      -2.71062344      -0.03133416       0.00000000
Si      -0.04526991       2.70365132      -2.69923066       0.00000000
Si       2.69677694       2.70653465       0.00822740       0.00000000
Si       2.69707016      -0.01312974      -2.71635650       0.00000000
