10
Lattice="16.290000149 0.0 0.0 0.0 16.290000149 0.0 0.0 0.0 29.1751946751" Properties=species:S:1:pos:R:3:initial_magmoms:R:1 pbc="T T T"
Si      -1.36185900      -1.39507561      -1.31893470       0.00000000
Si       1.29397010      -1.35309628       1.43209361       0.00000000
Si      -1.35037667       1.32659245       1.40694459       0.00000000
Si       1.37423093       1.36042678      -1.36225111       0.00000000
Si      -2.66096501      -2.68522245       0.15395750       0.00000000
Si      -2.81251088      -0.01055592      -2.54571370       0.00000000
Si       0.07224289      -2.70231066      -2.66942820       0.00000000
Si       2.69442141       2.70182684       0.03215106       0.00000000
Si       2.65084566      -2.74804972       0.14327938       0.00000000
Si      -2.68035011       2.73536796       0.09581134       0.00000000
