10
Lattice="16.290000149 0.0 0.0 0.0 16.290000149 0.0 0.0 0.0 29.1751946751" Properties=species:S:1:pos:R:3:initial_magmoms:R:1 pbc="T T T"
H       -1.44562348       0.27958527       0.43695689       0.00000000
Si       0.43627878      -2.12937995       0.90746526       0.00000000
Si      -0.35839629       0.22533957      -2.36435778       0.00000000
Si       1.22295547       1.58071645       1.41339231       0.00000000
H        0.18135657       2.68727987      -0.99113971       0.00000000
H        1.55671966      -1.38300472      -2.11327605       0.00000000
H        0.34464753      -3.20544849      -0.15246957       0.00000000
Si      -0.78925051       2.94332610       1.49041482       0.00000000
Si       3.41752800       0.16203663       0.37169198       0.00000000
Si      -2.66636351       2.23440158       0.21510871       0.00000000
