10
Lattice="16.290000149 0.0 0.0 0.0 16.290000149 0.0 0.0 0.0 29.1751946751" Properties=species:S:1:pos:R:3:initial_magmoms:R:1 pbc="T T T"
Si       1.36846880      -1.35676153       1.34095030       0.00000000
Si       1.39844308       1.33478632      -1.33473598       0.00000000
Si      -1.35075052       1.36075258       1.36026428       0.00000000
Si      -1.35744571      -1.34817670      -1.36773313       0.00000000
Si       0.08208531       2.77033118      -2.61091735       0.00000000
Si       2.69889627      -2.70611111      -0.05038556       0.00000000
Si       0.02057427      -2.71042796       2.69858881       0.00000000
Si      -2.71057457      -0.00272043       2.70261498       0.00000000
Si       2.68269098       0.00956223       2.73540790       0.00000000
Si      -2.71070489       2.71387656       0.00758555       0.00000000
