10
Lattice="16.290000149 0.0 0.0 0.0 16.290000149 0.0 0.0 0.0 29.1751946751" Properties=species:S:1:pos:R:3:initial_magmoms:R:1 pbc="T T T"
Si       0.46369485       2.20263608      -0.61521733       0.00000000
Si       1.07522146       0.08979048       2.10070154       0.00000000
Si      -0.42319791      -1.81066610      -1.48665122       0.00000000
Si      -2.31075607       0.18339282       0.59467799       0.00000000
H        2.73836532       1.01157643      -0.78495861       0.00000000
H       -0.08374689      -2.92095993       1.05097804       0.00000000
H        1.82509904       2.76918600      -0.34461740       0.00000000
Si      -1.27428526      -3.28930941       0.15176936       0.00000000
Si      -2.08174310       2.03149334       2.03628271       0.00000000
Si      -1.99067874      -0.73994068      -2.85050405       0.00000000
