10
Lattice="16.290000149 0.0 0.0 0.0 16.290000149 0.0 0.0 0.0 29.1751946751" Properties=species:S:1:pos:R:3:initial_magmoms:R:1 pbc="T T T"
Si      -1.36140418      -0.56654992      -0.27059993       0.00000000
H        0.91326628      -1.75760957      -0.44034121       0.00000000
H        1.58263867      -0.83020357       1.17683983       0.00000000
Si       1.04689315      -1.08154198       2.56347848       0.00000000
Si      -2.71844264       0.78102406       1.06194791       0.00000000
Si      -1.82620676      -0.15183909      -2.48450123       0.00000000
Si       2.04216329      -1.81416845      -1.44706048       0.00000000
Si      -1.19454571       2.12143043       2.23578269       0.00000000
Si      -0.00633681       1.15450489      -3.12221263       0.00000000
Si      -1.82509904      -2.76918600       0.34461740       0.00000000
