10
Lattice="16.290000149 0.0 0.0 0.0 16.290000149 0.0 0.0 0.0 29.1751946751" Properties=species:S:1:pos:R:3:initial_magmoms:R:1 pbc="T T T"
Si      -0.36913140      -0.64796734      -2.22513375       0.00000000
Si      -1.98739631      -0.60514093       1.17260942       0.00000000
Si       0.77929732       2.03716226       1.00975349       0.00000000
Si       1.48450771      -1.86777884       0.35596655       0.00000000
H       -2.24099903       2.08096607      -0.26931622       0.00000000
Si       1.79708024       0.70568281       2.63586214       0.00000000
H        2.76060117       1.95551678      -0.04916020       0.00000000
Si      -2.13625433      -2.13094379      -1.89034839       0.00000000
H       -0.44207802       3.28740348      -1.35457511       0.00000000
Si      -1.05446800      -1.64625113       3.00557021       0.00000000
