10
Lattice="16.290000149 0.0 0.0 0.0 16.290000149 0.0 0.0 0.0 29.1751946751" Properties=species:S:1:pos:R:3:initial_magmoms:R:1 pbc="T T T"
Si       1.35583300      -1.35469270       1.30208894       0.00000000
Si       1.37438731       1.25214715      -1.42961371       0.00000000
Si      -1.30922731      -1.43405758      -1.31892303       0.00000000
Si      -1.19775484       1.39668832       1.48034938       0.00000000
Si      -2.56714438       2.63572202       0.03454343       0.00000000
Si       2.72435591       2.59361237      -0.11544625       0.00000000
Si      -2.63839684      -0.07467336      -2.68420544       0.00000000
Si       2.74348038      -0.00853596       2.60073520       0.00000000
Si      -2.55888535      -0.03381804       2.78494738       0.00000000
Si       0.01690902      -2.66652641       2.69403748       0.00000000
