10
Lattice="16.290000149 0.0 0.0 0.0 16.290000149 0.0 0.0 0.0 29.1751946751" Properties=species:S:1:pos:R:3:initial_magmoms:R:1 pbc="T T T"
Si       1.32048044      -1.33573114      -1.40723634       0.00000000
Si       1.39173290       1.37466424       1.31151253       0.00000000
Si      -1.33954300       1.36682875      -1.37511445       0.00000000
Si      -1.35379675      -1.34675947       1.39591636       0.00000000
Si      -0.01394424       2.69288363       2.62270413       0.00000000
Si       2.64964997      -2.69511536      -0.04195393       0.00000000
Si      -2.69804756      -2.67292838      -0.01263286       0.00000000
Si      -2.72302013       2.71090037      -0.03938651       0.00000000
Si       2.67110390       0.02969667      -2.77146844       0.00000000
Si       0.04035294      -2.70179426       2.74693210       0.00000000
