10
Lattice="16.290000149 0.0 0.0 0.0 16.290000149 0.0 0.0 0.0 29.1751946751" Properties=species:S:1:pos:R:3:initial_magmoms:R:1 pbc="T T T"
Si      -1.36723600       1.38864106       1.31019964       0.00000000
Si      -1.36277254      -1.34609158      -1.36411540       0.00000000
Si       1.35422029       1.34783461      -1.37228446       0.00000000
Si       1.34447887      -1.33392295       1.40840335       0.00000000
Si       0.01213605       2.73882144       2.65444674       0.00000000
Si       2.66918168      -2.72777844       0.04455052       0.00000000
Si      -2.69773805      -2.70962650       0.00659359       0.00000000
Si      -0.06512742      -2.61792031       2.79337901       0.00000000
Si      -0.01190799      -2.69542650      -2.73710006       0.00000000
Si      -2.82121626       0.08754246       2.61050889       0.00000000
