10
Lattice="16.290000149 0.0 0.0 0.0 16.290000149 0.0 0.0 0.0 29.1751946751" Properties=species:S:1:pos:R:3:initial_magmoms:R:1 pbc="T T T"
Si       1.34416936       1.35502502      -1.36595344       0.00000000
Si      -1.35654976      -1.36209814      -1.35110327       0.00000000
Si       1.39020490      -1.34851228       1.33263537       0.00000000
Si      -1.38430792       1.35518792       1.33418165       0.00000000
Si       0.02647125      -2.69807363       2.68236740       0.00000000
Si      -0.02777445       2.72273343       2.67113495       0.00000000
Si      -2.70275537      -0.00149054      -2.70623271       0.00000000
Si       2.70407486      -0.00242395      -2.70541580       0.00000000
Si       2.71753040       2.70246867      -0.02325263       0.00000000
Si       2.70998813      -2.71729583      -0.05096907       0.00000000
