10
Lattice="16.290000149 0.0 0.0 0.0 16.290000149 0.0 0.0 0.0 29.1751946751" Properties=species:S:1:pos:R:3:initial_magmoms:R:1 pbc="T T T"
Si      -1.36837630      -1.35850456      -1.32752971       0.00000000
Si      -1.43630560       1.33563340       1.28073270       0.00000000
Si       1.35311257       1.35158131      -1.36108118       0.00000000
Si       1.36521604      -1.32569650       1.37846960       0.00000000
Si      -0.08770536       2.67797828       2.59568790       0.00000000
Si      -0.08876421      -2.62679510       2.67877885       0.00000000
Si       0.00211770      -2.71544528      -2.66025260       0.00000000
Si      -2.71205696       0.02451645      -2.67058062       0.00000000
Si       2.73113256      -0.01521486      -2.67230196       0.00000000
Si       2.72935694       2.69130350      -0.02742468       0.00000000
