10
Lattice="16.290000149 0.0 0.0 0.0 16.290000149 0.0 0.0 0.0 29.1751946751" Properties=species:S:1:pos:R:3:initial_magmoms:R:1 pbc="T T T"
Si      -1.39958794       1.42418584      -1.22407447       0.00000000
Si      -1.32647842      -1.38251602       1.37599846       0.00000000
Si       1.19926981      -1.47289294      -1.42938031       0.00000000
Si       1.30834765       1.44635653       1.37051644       0.00000000
H        3.22155930       1.72981883      -0.50989488       0.00000000
Si      -0.00447975       2.65528631      -2.65007046       0.00000000
Si       2.67118535      -2.68195304       0.02549912       0.00000000
Si       2.53210133      -0.14348232      -2.82862265       0.00000000
Si      -2.90331786       0.13880709      -2.51035045       0.00000000
Si       2.73584037       0.07956036       2.70482355       0.00000000
