10
Lattice="16.290000149 0.0 0.0 0.0 16.290000149 0.0 0.0 0.0 29.1751946751" Properties=species:S:1:pos:R:3:initial_magmoms:R:1 pbc="T T T"
Si      -1.39817560       1.44344714      -1.14961937       0.00000000
Si       1.52441821      -1.26589591      -1.21345470       0.00000000
Si       0.85136428       1.66955234       1.38039516       0.00000000
Si      -0.92009179      -1.73307683       1.27901136       0.00000000
H        0.18655308       2.93552319       0.89392796       0.00000000
Si       2.55687842      -2.09034911       0.74107912       0.00000000
Si       0.11406258      -2.66160683      -2.51364725       0.00000000
Si      -2.61562888       0.08376041      -2.60654107       0.00000000
Si       0.08281836       1.09190405       3.53346618       0.00000000
Si       0.73036216      -3.38778246       1.37756517       0.00000000
