10
Lattice="16.290000149 0.0 0.0 0.0 16.290000149 0.0 0.0 0.0 29.1751946751" Properties=species:S:1:pos:R:3:initial_magmoms:R:1 pbc="T T T"
Si      -1.33801174       1.15427683       1.55673879       0.00000000
Si      -1.30834765      -1.44635653      -1.37051644       0.00000000
Si       1.42749271      -1.36679617       1.33430711       0.00000000
Si       0.83417833       1.99754498      -1.08996981       0.00000000
H        1.91321165       0.28346229      -1.88041132       0.00000000
Si      -0.91178389       3.54004509      -0.63901262       0.00000000
Si      -2.74445778       2.51804306       0.30249425       0.00000000
Si      -2.70793559      -0.02217069      -2.59459091       0.00000000
Si       0.08425188       2.61412148       2.78158057       0.00000000
Si      -2.63482607      -2.82887256       0.00548202       0.00000000
