10
Lattice="16.290000149 0.0 0.0 0.0 16.290000149 0.0 0.0 0.0 29.1751946751" Properties=species:S:1:pos:R:3:initial_magmoms:R:1 pbc="T T T"
Si      -1.33200073       1.36630421      -1.37187600       0.00000000
Si       1.37049563       1.37247812       1.32948445       0.00000000
Si       1.36967136      -1.33854931      -1.38138712       0.00000000
Si      -1.37880190      -1.32768388       1.38876844       0.00000000
Si      -2.63643878      -2.69521310      -0.06634439       0.00000000
Si       0.05936614      -2.67722894       2.67597803       0.00000000
Si      -0.02674818       2.70920621       2.67778689       0.00000000
Si      -2.70280424       2.70627401      -0.00650607       0.00000000
Si      -2.66377340       0.01128897      -2.75504281       0.00000000
Si       2.77648392       0.03429045       2.66249909       0.00000000
