10
Lattice="16.290000149 0.0 0.0 0.0 16.290000149 0.0 0.0 0.0 29.1751946751" Properties=species:S:1:pos:R:3:initial_magmoms:R:1 pbc="T T T"
Si       1.35653347       1.36754551       1.33695330       0.00000000
Si      -1.32825729       1.36052452      -1.37421002       0.00000000
Si       1.38430792      -1.35518792      -1.33418165       0.00000000
Si      -1.34770266      -1.35389775       1.37546455       0.00000000
Si       2.70733286      -0.00022806       2.67676576       0.00000000
Si      -2.69834078      -0.00876402      -2.69905561       0.00000000
Si       0.05828562      -2.69208542       2.70847920       0.00000000
Si       0.02775816      -2.71728605      -2.68528492       0.00000000
Si      -2.69296508       2.71181261      -0.02371943       0.00000000
Si      -0.01883124       2.71448417       2.69558376       0.00000000
