10
Lattice="16.290000149 0.0 0.0 0.0 16.290000149 0.0 0.0 0.0 29.1751946751" Properties=species:S:1:pos:R:3:initial_magmoms:R:1 pbc="T T T"
Si       0.43895034      -0.24703785       2.28318130       0.00000000
Si      -1.71768278       1.63101998       0.10225906       0.00000000
Si      -0.04815324      -2.29493522      -0.66396908       0.00000000
Si       1.86906575       0.89770933      -1.27737755       0.00000000
H       -0.89565679       0.17659989      -2.52123280       0.00000000
Si       2.15550911      -2.67582800       0.13925320       0.00000000
Si      -0.32345424       3.36943992      -0.81422133       0.00000000
Si       2.07210431      -1.98234641       2.36805427       0.00000000
Si       3.46300968       1.71232337       0.28294104       0.00000000
Si      -3.77476770       0.62204995      -0.61956443       0.00000000
