10
Lattice="16.290000149 0.0 0.0 0.0 16.290000149 0.0 0.0 0.0 29.1751946751" Properties=species:S:1:pos:R:3:initial_magmoms:R:1 pbc="T T T"
Si      -1.25752285      -1.36917451       1.42610686       0.00000000
Si      -1.45200916       1.41597568      -1.21838530       0.00000000
Si       0.95658139      -1.26926794      -1.75477126       0.00000000
Si       1.38952072       1.37815030       1.34186348       0.00000000
Si       2.35111943       0.16474077      -2.93190284       0.00000000
Si      -2.68473863       0.00646713       2.71949575       0.00000000
Si      -2.06747795      -3.22862916       0.24546900       0.00000000
Si       2.73838160       0.01588275       2.71835792       0.00000000
Si       0.02611287       2.72591975       2.73252831       0.00000000
Si      -0.18731871       2.89947342      -2.54448543       0.00000000
