10
Lattice="16.290000149 0.0 0.0 0.0 16.290000149 0.0 0.0 0.0 29.1751946751" Properties=species:S:1:pos:R:3:initial_magmoms:R:1 pbc="T T T"
H       -0.17827776       1.38811978       0.60946982       0.00000000
Si       0.83452042      -1.24403473       1.71330747       0.00000000
Si       1.89600941       0.01478480      -1.33747845       0.00000000
Si      -1.90035884      -0.54869119      -1.28589671       0.00000000
Si       0.64035991       1.12084975      -2.93905076       0.00000000
Si      -2.62896167       1.64147816      -0.88252046       0.00000000
Si      -0.69167341       2.67043601      -1.78523016       0.00000000
Si       1.87378985       0.60979661       2.66567043       0.00000000
Si       2.33017049      -2.27431208      -1.03525261       0.00000000
Si      -0.99815347      -2.26603676       2.65481434       0.00000000
