10
Lattice="16.290000149 0.0 0.0 0.0 16.290000149 0.0 0.0 0.0 29.1751946751" Properties=species:S:1:pos:R:3:initial_magmoms:R:1 pbc="T T T"
Si      -1.43335711       1.31957146      -1.28277496       0.00000000
Si      -1.38003994      -1.31769811       1.36344437       0.00000000
Si       1.33514470       1.40445865       1.33844123       0.00000000
Si       1.34635222      -1.27927000      -1.46053942       0.00000000
Si      -0.07765443       2.65994525      -2.59808901       0.00000000
Si       2.68587893      -2.61568532      -0.03874466       0.00000000
Si      -0.02412549      -2.68798034       2.70223571       0.00000000
Si      -2.75348244      -2.64437201      -0.00014588       0.00000000
Si       2.69790095       0.06476904       2.70229406       0.00000000
Si      -2.74895382       0.06165765       2.68586842       0.00000000
