10
Lattice="16.290000149 0.0 0.0 0.0 16.290000149 0.0 0.0 0.0 29.1751946751" Properties=species:S:1:pos:R:3:initial_magmoms:R:1 pbc="T T T"
Si      -1.30315114      -1.35374788       1.43440428       0.00000000
Si       1.36025900      -1.45839484      -1.28740798       0.00000000
Si       1.39046717       1.28687743       1.43501696       0.00000000
Si      -1.30064248       1.53020116      -1.31812363       0.00000000
Si       2.70558983       0.00374670      -2.52121704       0.00000000
Si      -2.53245971       2.73097731       0.27839554       0.00000000
Si      -2.64986174      -2.68675859       0.04559791       0.00000000
Si       2.80233615       2.67740813       0.17835964       0.00000000
Si      -2.64692954      -0.05062932       2.85835801       0.00000000
Si       0.10899818       2.63213822       2.89144268       0.00000000
