10
Lattice="16.290000149 0.0 0.0 0.0 16.290000149 0.0 0.0 0.0 29.1751946751" Properties=species:S:1:pos:R:3:initial_magmoms:R:1 pbc="T T T"
Si      -1.25564950       1.10606495      -1.60157231       0.00000000
Si      -1.89600941      -0.01478480       1.33747845       0.00000000
Si       1.57275064       1.68695006       0.44509677       0.00000000
Si       0.43416108      -2.28909689       0.30222584       0.00000000
H        1.83998810       0.58367233      -2.38139609       0.00000000
H       -2.07428717       1.37333498       1.94694827       0.00000000
Si      -1.06148899      -1.25881954       3.05078592       0.00000000
Si       2.04555161      -2.46369311      -1.37654404       0.00000000
Si       0.84302380       2.32335150       2.62194207       0.00000000
Si      -2.58768281       2.65565121      -0.44775171       0.00000000
