10
Lattice="16.290000149 0.0 0.0 0.0 16.290000149 0.0 0.0 0.0 29.1751946751" Properties=species:S:1:pos:R:3:initial_magmoms:R:1 pbc="T T T"
Si      -1.32973642       1.31460301       1.41946075       0.00000000
Si      -1.42648273      -1.35905842      -1.28011593       0.00000000
Si       1.32908482      -1.39562947       1.36908977       0.00000000
Si       1.33522615       1.36451460      -1.40838001       0.00000000
Si       0.01852173      -2.55197513      -2.63846457       0.00000000
Si       2.63303417       2.64854063       0.09764354       0.00000000
Si      -2.60876044       2.68791844       0.03216273       0.00000000
Si      -2.74160540      -0.07592769       2.67611807       0.00000000
Si       2.66616803      -0.07073118       2.77394250       0.00000000
Si       2.71067231      -2.75214666       0.04423543       0.00000000
