10
Lattice="16.290000149 0.0 0.0 0.0 16.290000149 0.0 0.0 0.0 29.1751946751" Properties=species:S:1:pos:R:3:initial_magmoms:R:1 pbc="T T T"
Si       1.24928011      -1.37055916       1.41301595       0.00000000
Si      -1.28739871       1.44920728       1.32751220       0.00000000
Si       1.90733096       0.79057000      -1.12173372       0.00000000
Si      -1.83901070      -0.88120756      -1.18592207       0.00000000
H        0.69507802      -1.82804753      -1.92273285       0.00000000
Si       1.25063218       1.21458241      -3.25198390       0.00000000
Si       2.66916539       0.05866029       2.64829077       0.00000000
Si      -2.71461449       0.05835078       2.60872921       0.00000000
Si       2.74714563      -2.60637070       0.13346776       0.00000000
Si      -3.47216466       0.85410100      -1.27079504       0.00000000
