10
Lattice="16.290000149 0.0 0.0 0.0 16.290000149 0.0 0.0 0.0 29.1751946751" Properties=species:S:1:pos:R:3:initial_magmoms:R:1 pbc="T T T"
Si       1.39453804       1.43400871      -1.17713158       0.00000000
Si       1.69873751      -1.59887980       0.01905140       0.00000000
Si      -0.95658139       1.26926794       1.75477126       0.00000000
Si      -1.59394393      -0.81461404      -1.56031859       0.00000000
Si      -2.07089885       1.21358872      -2.62355021       0.00000000
Si      -0.17308125       2.71376741      -2.30189368       0.00000000
Si       0.62978770      -3.35919351      -1.04639753       0.00000000
Si      -2.40859055       2.68524362       0.53638595       0.00000000
Si      -0.29797668      -2.31603077      -2.88125470       0.00000000
Si       2.35543628      -2.02289222       2.14930158       0.00000000
