10
Lattice="16.290000149 0.0 0.0 0.0 16.290000149 0.0 0.0 0.0 29.1751946751" Properties=species:S:1:pos:R:3:initial_magmoms:R:1 pbc="T T T"
Si       1.42519582      -1.36024759      -1.27002540       0.00000000
Si       1.35627283       1.34947990       1.35466264       0.00000000
Si      -1.32450733      -1.38683287       1.38307928       0.00000000
Si      -1.33952671       1.33641532      -1.42179476       0.00000000
Si       0.03500721      -2.70515000      -2.54534610       0.00000000
Si      -2.68587893       2.61568532       0.03874466       0.00000000
Si       2.69695613       2.70273908      -0.03086736       0.00000000
Si       2.70163136      -0.03130938       2.70932528       0.00000000
Si       0.01202202       2.68045436       2.74103871       0.00000000
Si      -2.71148681      -0.06978636      -2.73410669       0.00000000
