10
Lattice="16.290000149 0.0 0.0 0.0 16.290000149 0.0 0.0 0.0 29.1751946751" Properties=species:S:1:pos:R:3:initial_magmoms:R:1 pbc="T T T"
Si      -1.34671712      -1.34762284       1.36857921       0.00000000
Si       1.35176050      -1.36938628      -1.35865964       0.00000000
Si      -1.36571940       1.34791606      -1.37205106       0.00000000
Si       1.33074640       1.34565175       1.41461766       0.00000000
Si      -2.64718839       2.69317685       0.08437466       0.00000000
Si       0.04614957       2.73844677      -2.62870838       0.00000000
Si       2.70497081       0.02821428      -2.67907935       0.00000000
Si      -2.71106327      -2.67753845      -0.01056142       0.00000000
Si       2.71811684       2.70487307       0.11039894       0.00000000
Si       0.00433314      -2.70674642       2.72828915       0.00000000
