10
Lattice="16.290000149 0.0 0.0 0.0 16.290000149 0.0 0.0 0.0 29.1751946751" Properties=species:S:1:pos:R:3:initial_magmoms:R:1 pbc="T T T"
Si      -2.06602814       0.73358106      -0.85842175       0.00000000
Si      -0.77320486      -1.50267921       1.71176702       0.00000000
Si       1.05808438      -0.67527752      -2.06487440       0.00000000
Si       0.93657727       2.07211245       0.82592059       0.00000000
H       -1.37634211       2.27798548       1.72959307       0.00000000
Si      -1.29748222       1.31122935      -3.01149277       0.00000000
Si      -2.65875608       2.24094202       0.91160813       0.00000000
H        0.40270509      -3.59617229      -0.52524103       0.00000000
Si      -2.31366872      -2.81508307       0.52241104       0.00000000
Si      -3.34120772      -1.26634389      -0.96033071       0.00000000
