10
Lattice="16.290000149 0.0 0.0 0.0 16.290000149 0.0 0.0 0.0 29.1751946751" Properties=species:S:1:pos:R:3:initial_magmoms:R:1 pbc="T T T"
Si      -1.34802889      -1.35384562       1.35723006       0.00000000
Si      -1.36848913       1.35676153      -1.34065855       0.00000000
Si       1.33056190      -1.34934958      -1.39104411       0.00000000
Si       1.31405850       1.36752922       1.39323225       0.00000000
Si       0.03009063       2.69145011      -2.67524865       0.00000000
Si       2.68161216      -2.70847316      -0.03133416       0.00000000
Si      -2.69205164       0.01086543       2.70827497       0.00000000
Si       2.69034360       2.71516835       0.04335434       0.00000000
Si      -2.71871837      -2.70154991       0.00172134       0.00000000
Si       2.70388059       0.01943397       2.72254164       0.00000000
