10
Lattice="16.290000149 0.0 0.0 0.0 16.290000149 0.0 0.0 0.0 29.1751946751" Properties=species:S:1:pos:R:3:initial_magmoms:R:1 pbc="T T T"
H        1.28241397       0.03704346       0.81798493       0.00000000
Si      -1.35988921      -1.38993449       1.33774103       0.00000000
Si      -0.78995749       2.25070787       0.22365704       0.00000000
Si       0.59272795      -1.50736095      -1.77002989       0.00000000
Si       0.54537291       2.01593639      -1.67914915       0.00000000
Si       0.47835585      -2.56508858       2.27280602       0.00000000
Si       2.75248875       1.92096569      -0.86221453       0.00000000
H       -3.08544006       0.95262292      -1.43372742       0.00000000
Si       2.65875608      -2.24094202      -0.91160813       0.00000000
Si       3.59533335      -0.16882956      -0.08568755       0.00000000
