10
Lattice="16.290000149 0.0 0.0 0.0 16.290000149 0.0 0.0 0.0 29.1751946751" Properties=species:S:1:pos:R:3:initial_magmoms:R:1 pbc="T T T"
Si      -1.32093982      -1.32571279       1.36590530       0.00000000
Si       1.26308589      -1.42776964      -1.32639333       0.00000000
Si      -1.13826376       1.50236155      -1.38346002       0.00000000
Si       1.50698140       1.38491065       1.16703550       0.00000000
Si       1.94492828       0.33488982      -2.83381729       0.00000000
H       -2.32251419       0.96757714      -2.43423383       0.00000000
Si       0.53039426       2.28418382      -2.83384647       0.00000000
Si       0.10652031       2.73412992       2.53648413       0.00000000
Si       0.12909429      -2.71078634       2.59195785       0.00000000
Si      -2.57900024       0.07495029       2.73057795       0.00000000
