10
Lattice="16.290000149 0.0 0.0 0.0 16.290000149 0.0 0.0 0.0 29.1751946751" Properties=species:S:1:pos:R:3:initial_magmoms:R:1 pbc="T T T"
Si       1.35748807      -1.24216138       1.45704832       0.00000000
Si      -1.17074765       1.59173729       1.28645103       0.00000000
Si       1.31609518       1.42734610      -1.34637688       0.00000000
Si      -1.45884119      -1.38504097      -1.34879842       0.00000000
Si      -0.52214989       2.60250020      -2.28144187       0.00000000
Si       2.80249253      -2.43507809       0.09869968       0.00000000
Si      -1.45491530       3.41653431      -0.28521670       0.00000000
Si       0.00533823      -2.59382414      -2.68971955       0.00000000
Si      -2.64874425       0.28429308       2.66014174       0.00000000
Si       0.01215723      -2.70430292       2.69085738       0.00000000
