10
Lattice="16.290000149 0.0 0.0 0.0 16.290000149 0.0 0.0 0.0 29.1751946751" Properties=species:S:1:pos:R:3:initial_magmoms:R:1 pbc="T T T"
Si      -1.32027193      -1.34089507      -1.39442551       0.00000000
Si       1.35547462       1.31453785      -1.39972081       0.00000000
Si      -1.37893222       1.35920503       1.33596134       0.00000000
Si       1.35241210      -1.36743148       1.35635480       0.00000000
Si       2.69912270       2.68385897      -0.03611889       0.00000000
Si      -2.69445399      -2.70189200      -0.03270539       0.00000000
Si       0.09888030      -2.72306900      -2.67804072       0.00000000
Si      -0.01879866       2.71358822       2.68954450       0.00000000
Si       2.69933447      -0.01050705       2.71880722       0.00000000
Si      -0.01842399       2.66582594      -2.76130381       0.00000000
