10
Lattice="16.290000149 0.0 0.0 0.0 16.290000149 0.0 0.0 0.0 29.1751946751" Properties=species:S:1:pos:R:3:initial_magmoms:R:1 pbc="T T T"
Si      -1.35966115       1.35195598       1.35256203       0.00000000
Si      -1.36080145      -1.34379469      -1.36218984       0.00000000
Si       1.32294349      -1.36436896       1.39323225       0.00000000
Si       1.35580042       1.37792224      -1.35533367       0.00000000
Si       2.69374700      -2.70433876       0.02786231       0.00000000
Si       2.69592986       0.01972719       2.70264416       0.00000000
Si       0.01312974       2.71673219       2.68484729       0.00000000
Si       0.00195480      -2.70628868      -2.70786652       0.00000000
Si      -2.72578943      -2.69130513      -0.01225358       0.00000000
Si      -2.71520093       2.70324407      -0.01572543       0.00000000
