10
Lattice="16.290000149 0.0 0.0 0.0 16.290000149 0.0 0.0 0.0 29.1751946751" Properties=species:S:1:pos:R:3:initial_magmoms:R:1 pbc="T T T"
Si      -1.61139052       0.17459622       1.67876988       0.00000000
Si       0.83587249       1.92862199      -1.01856440       0.00000000
Si       1.77135833      -1.15434199       1.02798798       0.00000000
Si      -1.56266713      -0.77924845      -1.59340326       0.00000000
H       -0.20556351       3.04736544      -1.00485206       0.00000000
Si      -2.04555161       2.46369311       1.37654404       0.00000000
Si       1.11073366       1.17395515      -3.21951191       0.00000000
Si       0.61972048      -2.79427260       2.20899986       0.00000000
Si      -2.47686194      -2.61438212      -0.42449908       0.00000000
Si      -0.41972814      -0.65937034      -3.65393056       0.00000000
