10
Lattice="16.290000149 0.0 0.0 0.0 16.290000149 0.0 0.0 0.0 29.1751946751" Properties=species:S:1:pos:R:3:initial_magmoms:R:1 pbc="T T T"
Si       0.15211602      -0.79871500      -1.27562704       0.00000000
H       -1.43057152       2.02315286      -0.48147824       0.00000000
Si       0.89565679      -0.17659989       2.52123280       0.00000000
Si      -2.05499981      -0.70374430      -2.09256166       0.00000000
H       -1.31795875      -2.68263722       0.40457242       0.00000000
Si       0.99496063      -2.88851025      -0.49910006       0.00000000
Si      -0.82202599       1.45442008       2.62349186       0.00000000
Si       2.76472254       0.72110944       1.24385525       0.00000000
Si       0.84750355      -2.47153511       1.85726372       0.00000000
Si       1.23365800       0.35758179      -2.98543932       0.00000000
