10
Lattice="16.290000149 0.0 0.0 0.0 16.290000149 0.0 0.0 0.0 29.1751946751" Properties=species:S:1:pos:R:3:initial_magmoms:R:1 pbc="T T T"
Si       1.34798122       1.36181143       1.35060729       0.00000000
Si      -1.34304861       1.35793441      -1.36353190       0.00000000
Si       1.35897697      -1.35547462      -1.35416666       0.00000000
Si      -1.36793973      -1.36490653       1.34415957       0.00000000
Si      -0.03354111      -2.69860142      -2.68376781       0.00000000
Si       2.69166188      -0.02120958       2.69365820       0.00000000
Si      -2.67790824      -0.01909188      -2.70868342       0.00000000
Si      -0.04048065       2.71277372       2.68403038       0.00000000
Si       2.69638598       2.70936911      -0.02768726       0.00000000
Si       2.68879484      -2.72559395       0.01823450       0.00000000
