10
Lattice="16.290000149 0.0 0.0 0.0 16.290000149 0.0 0.0 0.0 29.1751946751" Properties=species:S:1:pos:R:3:initial_magmoms:R:1 pbc="T T T"
Si      -1.34798122      -1.36181143      -1.35060729       0.00000000
Si       1.34368066      -1.38302101       1.34305091       0.00000000
Si      -1.38846187       1.35096229       1.33342310       0.00000000
Si       1.34840476       1.34755768      -1.37829455       0.00000000
Si       2.71205696      -0.02451645       2.67058062       0.00000000
Si      -0.03640815       2.73748566       2.65500107       0.00000000
Si      -2.69102983      -0.00387702      -2.71413919       0.00000000
Si       2.71383257       2.70334181      -0.03200519       0.00000000
Si       0.01099575      -2.71728605      -2.70477395       0.00000000
Si      -0.03113019      -2.71969697       2.70471560       0.00000000
