10
Lattice="16.290000149 0.0 0.0 0.0 16.290000149 0.0 0.0 0.0 29.1751946751" Properties=species:S:1:pos:R:3:initial_magmoms:R:1 pbc="T T T"
Si       1.36720342       1.35013150      -1.35056936       0.00000000
Si      -1.34364808      -1.36932112      -1.36360192       0.00000000
Si       1.35159760      -1.31880583       1.40796572       0.00000000
Si      -1.36267480       1.37360539       1.34979038       0.00000000
Si       2.67172292       2.64513764       0.12533664       0.00000000
Si      -2.69912270      -2.68385897       0.03611889       0.00000000
Si       0.08356770      -2.74496277      -2.65699081       0.00000000
Si      -0.00446346       2.76185550      -2.65487269       0.00000000
Si       2.77068468      -2.64942191       0.10593513       0.00000000
Si      -2.71754669      -0.01803303      -2.72518491       0.00000000
