10
Lattice="16.290000149 0.0 0.0 0.0 16.290000149 0.0 0.0 0.0 29.1751946751" Properties=species:S:1:pos:R:3:initial_magmoms:R:1 pbc="T T T"
Si       2.24808518      -0.50340987       0.26992890       0.00000000
Si      -1.57275064      -1.68695006      -0.44509677       0.00000000
Si      -0.72972685       0.63640144       2.17684530       0.00000000
Si      -0.08350254       1.46466649      -1.92340388       0.00000000
H        0.26723745      -1.10327773      -2.82649286       0.00000000
Si      -2.82840015      -0.58088512      -2.04666908       0.00000000
Si      -1.30577383       3.32056992      -1.26553242       0.00000000
Si       1.30867345      -2.22202118      -2.84020520       0.00000000
Si       3.18085059      -1.31744399      -1.72629627       0.00000000
H       -0.00544086       3.87030856      -0.34937296       0.00000000
