10
Lattice="16.290000149 0.0 0.0 0.0 16.290000149 0.0 0.0 0.0 29.1751946751" Properties=species:S:1:pos:R:3:initial_magmoms:R:1 pbc="T T T"
Si      -0.84631438       1.84578734      -1.12248644       0.00000000
Si       1.71556508      -0.44352783      -1.52638784       0.00000000
Si       1.37787337       1.02812707       1.63354833       0.00000000
Si      -1.39422853      -1.73841995       0.91648039       0.00000000
H        1.11972574      -0.53323686      -2.92945212       0.00000000
H       -2.00277407      -1.16968717      -2.18848970       0.00000000
Si       2.19251999      -2.47173059      -0.46315622       0.00000000
Si       0.32345424      -3.36943992       0.81422133       0.00000000
Si       2.64256382       2.51162480       0.30744820       0.00000000
H       -0.57220255      -3.19284003      -1.70701147       0.00000000
