10
Lattice="16.290000149 0.0 0.0 0.0 16.290000149 0.0 0.0 0.0 29.1751946751" Properties=species:S:1:pos:R:3:initial_magmoms:R:1 pbc="T T T"
Si      -1.33489384       1.33700176      -1.38628855       0.00000000
Si       1.34434855       1.46425924       1.25421244       0.00000000
Si      -1.41355336      -1.30154821       1.38739721       0.00000000
Si       1.42516324      -1.35587699      -1.34019174       0.00000000
H        2.21291507       0.56974276       2.09667537       0.00000000
H       -1.20448913       1.81367975       2.58381359       0.00000000
H        0.17117532       0.19052784       3.43094454       0.00000000
Si      -0.01537776      -2.74499535       2.53701658       0.00000000
Si      -2.63100664      -2.66123493      -0.06952449       0.00000000
Si      -2.59767526       2.69716790       0.04478392       0.00000000
