10
Lattice="16.290000149 0.0 0.0 0.0 16.290000149 0.0 0.0 0.0 29.1751946751" Properties=species:S:1:pos:R:3:initial_magmoms:R:1 pbc="T T T"
Si       0.84631438      -1.84578734       1.12248644       0.00000000
Si      -1.72097336       0.75921175       1.37829455       0.00000000
Si      -1.07810479      -0.08620668      -2.09857175       0.00000000
Si       1.79870924       1.59503536       0.11906397       0.00000000
H        2.33360768       1.85222189      -1.26678695       0.00000000
H       -1.15645969      -3.01547451      -1.06600326       0.00000000
H        1.66236194       0.92991466      -2.88469737       0.00000000
Si      -0.36150768       2.10417932       2.71994505       0.00000000
Si       2.56187945      -2.28931517      -0.40390140       0.00000000
Si      -0.62235946       2.12116979      -2.71136754       0.00000000
