10
Lattice="16.290000149 0.0 0.0 0.0 16.290000149 0.0 0.0 0.0 29.1751946751" Properties=species:S:1:pos:R:3:initial_magmoms:R:1 pbc="T T T"
Si       1.46801352      -1.29348743       1.27142581       0.00000000
Si      -1.39934359      -1.41629497      -1.25610883       0.00000000
Si      -1.23564538       1.42930742       1.41129169       0.00000000
Si       1.38443824       1.33964726      -1.37718589       0.00000000
Si       0.15903927      -2.62882484       2.64242656       0.00000000
Si      -2.58621671       2.74425252      -0.01006544       0.00000000
Si      -2.65926107      -0.02257305      -2.68531409       0.00000000
Si       0.03238452      -2.69724284      -2.66620434       0.00000000
Si       2.68546680       0.06619930       2.72834751       0.00000000
Si       2.76412632       2.70474927      -0.04533825       0.00000000
