10
Lattice="16.290000149 0.0 0.0 0.0 16.290000149 0.0 0.0 0.0 29.1751946751" Properties=species:S:1:pos:R:3:initial_magmoms:R:1 pbc="T T T"
Si       1.77192848       1.00846504       1.15198256       0.00000000
Si       1.34103354      -1.30119634      -1.42444970       0.00000000
Si      -1.23258286       1.48996486      -1.36256912       0.00000000
Si      -1.30044700      -1.29959992       1.49578306       0.00000000
H       -3.15384177      -0.79834033      -1.58219998       0.00000000
Si      -2.30555630       0.45830286       2.76493320       0.00000000
Si      -2.50782923       0.02702511      -2.66016508       0.00000000
Si       3.42238242      -0.64624060       1.25053637       0.00000000
Si       2.76050343      -2.52270200      -0.04775979       0.00000000
Si       2.69202026       2.74154187      -0.12702880       0.00000000
