10
Lattice="16.290000149 0.0 0.0 0.0 16.290000149 0.0 0.0 0.0 29.1751946751" Properties=species:S:1:pos:R:3:initial_magmoms:R:1 pbc="T T T"
Si       1.81534133      -0.89373457       1.14547649       0.00000000
Si      -0.86582980       1.77503987       1.29730421       0.00000000
Si       1.11272104       1.43964505      -1.55287891       0.00000000
Si      -1.02946285      -2.14799942      -0.39558646       0.00000000
H       -1.96165811      -0.58674952      -1.87450626       0.00000000
Si       2.60030756       2.45172647      -0.08332436       0.00000000
Si      -0.06419889      -2.55494643      -2.54921181       0.00000000
Si      -1.94737178       0.61874308       3.00711649       0.00000000
Si       0.99781138       3.24491916       1.44606852       0.00000000
H        3.18212121      -0.63325747      -1.76285279       0.00000000
