10
Lattice="16.290000149 0.0 0.0 0.0 16.290000149 0.0 0.0 0.0 29.1751946751" Properties=species:S:1:pos:R:3:initial_magmoms:R:1 pbc="T T T"
H        0.64154908      -0.84445732       1.07837355       0.00000000
Si      -1.42785109       1.22844520       1.28834742       0.00000000
Si      -1.43858620      -1.33012738      -1.21149996       0.00000000
Si       1.50016240       1.36055710      -1.16353594       0.00000000
Si       0.05973543       2.24052662       2.75790198       0.00000000
Si       0.08226450      -2.64815455      -2.40739119       0.00000000
Si       1.06279219      -3.50744554      -0.41889745       0.00000000
Si       0.15952797       2.70858719      -2.54632347       0.00000000
Si      -2.67382433       0.05730822      -2.59026131       0.00000000
Si       2.79883380      -0.59220667       2.39061545       0.00000000
