10
Lattice="16.290000149 0.0 0.0 0.0 16.290000149 0.0 0.0 0.0 29.1751946751" Properties=species:S:1:pos:R:3:initial_magmoms:R:1 pbc="T T T"
Si       1.38549709      -1.31453785      -1.35790109       0.00000000
Si       1.36997272       1.36182772       1.32741301       0.00000000
Si      -1.35591445       1.37028223      -1.33879133       0.00000000
Si      -1.35581671      -1.35573526       1.35749263       0.00000000
Si       0.00680922      -2.67846698      -2.66270332       0.00000000
Si      -0.00850338       2.70863606       2.64951613       0.00000000
Si       0.02412549       2.68798034      -2.70223571       0.00000000
Si       2.71518464      -2.68105709       0.01788439       0.00000000
Si      -2.73383670       0.01106091       2.66871341       0.00000000
Si      -2.73468378      -2.69114060       0.01344976       0.00000000
