10
Lattice="16.290000149 0.0 0.0 0.0 16.290000149 0.0 0.0 0.0 29.1751946751" Properties=species:S:1:pos:R:3:initial_magmoms:R:1 pbc="T T T"
Si      -1.36373365      -1.34956135       1.34973203       0.00000000
Si      -1.39020490       1.34851228      -1.33263537       0.00000000
Si       1.31978323      -1.36878355      -1.38360443       0.00000000
Si       1.35992179       1.34246217       1.37922815       0.00000000
Si      -0.06717996       2.70347213       2.67831205       0.00000000
Si       0.00990432      -2.70075170       2.69578799       0.00000000
Si       2.68910435      -2.71042796      -0.02987540       0.00000000
Si       2.69488730       2.70599708       0.00851916       0.00000000
Si      -0.04603554       2.70353729      -2.69858881       0.00000000
Si       2.69643485      -0.01332522      -2.71600640       0.00000000
