10
Lattice="16.290000149 0.0 0.0 0.0 16.290000149 0.0 0.0 0.0 29.1751946751" Properties=species:S:1:pos:R:3:initial_magmoms:R:1 pbc="T T T"
Si      -1.38782656      -1.27454590      -1.37768070       0.00000000
Si       1.20290248      -1.39729105       1.44127796       0.00000000
Si      -1.41915223       1.38217393       1.28361521       0.00000000
Si       1.87385501       0.80251057      -1.19570684       0.00000000
Si       2.51814080      -2.72052939       0.04045724       0.00000000
Si       2.63140517       0.00676035       2.68381741       0.00000000
Si       2.68381010       2.66196521      -0.01506899       0.00000000
Si       3.50700897      -0.93279799      -1.11083387       0.00000000
Si      -0.09888030       2.72306900       2.67804072       0.00000000
Si      -2.72365382      -2.68115158      -0.02502356       0.00000000
