10
Lattice="16.290000149 0.0 0.0 0.0 16.290000149 0.0 0.0 0.0 29.1751946751" Properties=species:S:1:pos:R:3:initial_magmoms:R:1 pbc="T T T"
Si       1.34983828       1.39507835      -1.31056433       0.00000000
Si      -1.32393718       1.35176050       1.38462556       0.00000000
Si      -1.33708321      -1.32489829      -1.40485273       0.00000000
Si       1.38481291      -1.35669637       1.33952071       0.00000000
Si       2.66994731      -0.09399330      -2.51905633       0.00000000
Si       0.02109555      -2.71823087       2.66906351       0.00000000
Si       2.71044425       2.67746352       0.09972082       0.00000000
Si      -0.03313386       2.71927181      -2.67629896       0.00000000
Si      -2.71130762      -0.00746082       2.68884429       0.00000000
Si      -2.69456150       2.71242512       0.07124583       0.00000000
