10
Lattice="16.290000149 0.0 0.0 0.0 16.290000149 0.0 0.0 0.0 29.1751946751" Properties=species:S:1:pos:R:3:initial_magmoms:R:1 pbc="T T T"
Si       0.52633805      -0.66841129       2.23397383       0.00000000
Si      -2.00673254       1.37187865       0.08510404       0.00000000
Si       1.15738496       2.06475752      -0.58548781       0.00000000
Si      -1.21787299      -1.60111153      -1.41455931       0.00000000
Si       2.19646217      -1.41341815      -1.04076672       0.00000000
H       -1.03078234       1.11560437      -2.39706317       0.00000000
H       -2.65873979      -1.29588580      -0.96794543       0.00000000
H       -1.55701450       2.65544921      -0.57898174       0.00000000
Si      -0.00073305       2.22602852      -2.60770808       0.00000000
H        3.38941146      -1.04000248      -0.14914360       0.00000000
