10
Lattice="16.290000149 0.0 0.0 0.0 16.290000149 0.0 0.0 0.0 29.1751946751" Properties=species:S:1:pos:R:3:initial_magmoms:R:1 pbc="T T T"
H        1.19294929       0.37341567       0.89162312       0.00000000
Si       0.84641212       1.48747249      -1.62412474       0.00000000
Si       0.56852101      -2.35348148      -0.71946030       0.00000000
Si      -0.76680940      -2.11871000       1.18334590       0.00000000
Si      -2.19646217       1.41341815       1.04076672       0.00000000
H        2.62352081      -1.64973719       1.37310136       0.00000000
Si      -3.41433516      -0.18769338      -0.37379259       0.00000000
Si      -0.25559010      -1.20428713       3.27476973       0.00000000
H       -1.91939859      -1.58731390      -2.47691568       0.00000000
Si       1.27130419       3.30268350      -0.14094537       0.00000000
