10
Lattice="16.290000149 0.0 0.0 0.0 16.290000149 0.0 0.0 0.0 29.1751946751" Properties=species:S:1:pos:R:3:initial_magmoms:R:1 pbc="T T T"
Si       1.33885068      -1.35883036       1.36332767       0.00000000
Si      -1.35204558      -1.35280306      -1.36096448       0.00000000
Si      -1.32796896       1.34890975       1.39501193       0.00000000
Si       1.35867561       1.35203743      -1.36230654       0.00000000
Si       2.69090440       0.02769300       2.68490564       0.00000000
Si      -2.67096544       2.70666497       0.02625768       0.00000000
Si       0.03628272      -2.71366967      -2.68423461       0.00000000
Si      -2.68981297      -2.70993926       0.02033511       0.00000000
Si      -2.69740411       0.02798622      -2.71562712       0.00000000
Si       2.69895166       2.71492400       0.00268412       0.00000000
