10
Lattice="16.290000149 0.0 0.0 0.0 16.290000149 0.0 0.0 0.0 29.1751946751" Properties=species:S:1:pos:R:3:initial_magmoms:R:1 pbc="T T T"
Si       1.34618932       1.33008503      -1.34672407       0.00000000
Si      -1.35604477       1.39547309       1.28910598       0.00000000
Si       1.37062432      -1.36066462       1.31337974       0.00000000
Si      -1.30134295      -1.32709093      -1.42572758       0.00000000
Si      -2.68063355       0.01196501       2.65082901       0.00000000
Si      -0.01674612      -2.71988594       2.61759847       0.00000000
Si       0.03647331       2.73859989       2.61870712       0.00000000
Si       2.72619669       0.01103159       2.65164592       0.00000000
Si      -2.58036697       0.04622450      -2.81302559       0.00000000
Si      -2.65004745       2.74855308      -0.14266670       0.00000000
