10
Lattice="16.290000149 0.0 0.0 0.0 16.290000149 0.0 0.0 0.0 29.1751946751" Properties=species:S:1:pos:R:3:initial_magmoms:R:1 pbc="T T T"
Si       1.36932112      -1.34164441       1.35372903       0.00000000
Si       1.37665162       1.35545833      -1.33240197       0.00000000
Si      -1.31978323       1.36878355       1.38360443       0.00000000
Si      -1.36651924      -1.36187659      -1.35256203       0.00000000
Si      -0.01954800      -2.70083315       2.66728382       0.00000000
Si      -0.00591327       2.71487188      -2.65444674       0.00000000
Si       2.72743472      -0.02106297      -2.68093781       0.00000000
Si      -2.68351688       0.01922220       2.73333646       0.00000000
Si      -2.70998813       2.71729583       0.05096907       0.00000000
Si       2.72168435      -2.71145423       0.00297587       0.00000000
