10
Lattice="16.290000149 0.0 0.0 0.0 16.290000149 0.0 0.0 0.0 29.1751946751" Properties=species:S:1:pos:R:3:initial_magmoms:R:1 pbc="T T T"
Si      -1.38886912      -1.35918874       1.31355479       0.00000000
Si      -1.36932112       1.34164441      -1.35372903       0.00000000
Si       1.35236323      -1.36980982      -1.35075316       0.00000000
Si       1.37639098       1.36603054       1.33683660       0.00000000
Si       2.77179240      -0.08441478       2.53016041       0.00000000
Si       0.00733050       2.69710274      -2.68613100       0.00000000
Si      -0.06840171      -2.79979491       2.58912348       0.00000000
Si      -2.68910435       2.71042796       0.02987540       0.00000000
Si      -2.67920003       0.00967626       2.72566339       0.00000000
Si       2.72723924      -0.02746494      -2.69319140       0.00000000
