10
Lattice="16.290000149 0.0 0.0 0.0 16.290000149 0.0 0.0 0.0 29.1751946751" Properties=species:S:1:pos:R:3:initial_magmoms:R:1 pbc="T T T"
Si       1.39934359       1.41629497       1.25610883       0.00000000
Si      -1.25991748       1.39372191      -1.42920526       0.00000000
Si       1.43172811      -1.28094787      -1.41009551       0.00000000
Si      -1.29562516      -1.58851936       1.27974074       0.00000000
Si      -2.52586226      -2.72543105      -0.34610533       0.00000000
Si       0.28313649      -2.67546962       2.60093943       0.00000000
Si      -2.58462029       2.78757741      -0.06535244       0.00000000
Si       2.86735711       0.12280754       2.52753464       0.00000000
Si      -2.56660355       0.07936488      -2.87466111       0.00000000
Si       2.86989615      -2.63049293      -0.12288592       0.00000000
