10
Lattice="16.290000149 0.0 0.0 0.0 16.290000149 0.0 0.0 0.0 29.1751946751" Properties=species:S:1:pos:R:3:initial_magmoms:R:1 pbc="T T T"
Si       0.90176554      -0.74256337      -0.97693139       0.00000000
Si      -1.07903332       1.71408269       0.79044151       0.00000000
Si      -1.91321165      -0.28346229       1.88041132       0.00000000
Si      -1.32934546       2.22630545      -1.50716138       0.00000000
Si       2.30436257      -1.91241344       0.48363720       0.00000000
Si      -0.68945797      -1.87330115      -2.31872777       0.00000000
Si       2.05340339       0.89736724      -2.15794327       0.00000000
Si       0.86350033       2.56670129       1.85099689       0.00000000
Si      -0.48571893      -1.65025847       3.21471842       0.00000000
Si      -3.22155930      -1.72981883       0.50989488       0.00000000
