10
Lattice="16.290000149 0.0 0.0 0.0 16.290000149 0.0 0.0 0.0 29.1751946751" Properties=species:S:1:pos:R:3:initial_magmoms:R:1 pbc="T T T"
Si       1.35205372       1.38652336       1.32157797       0.00000000
Si      -1.33885068       1.35883036      -1.36332767       0.00000000
Si       1.38846187      -1.35096229      -1.33342310       0.00000000
Si      -1.34947827      -1.36546039       1.36475726       0.00000000
Si       2.66421323      -0.03984534       2.61789022       0.00000000
Si      -2.66681963       2.70774011       0.03168426       0.00000000
Si       0.04048065      -2.71277372      -2.68403038       0.00000000
Si      -2.69089625       0.00602730      -2.72429215       0.00000000
Si      -2.69216687      -2.72639216       0.01061977       0.00000000
Si       0.01982493       2.71086779      -2.72563421       0.00000000
