10
Lattice="16.290000149 0.0 0.0 0.0 16.290000149 0.0 0.0 0.0 29.1751946751" Properties=species:S:1:pos:R:3:initial_magmoms:R:1 pbc="T T T"
Si       1.37008349       1.36928854       1.32484559       0.00000000
Si      -1.32491458       1.38349342      -1.36020593       0.00000000
Si       1.37989333      -1.34791443      -1.34135875       0.00000000
Si      -1.35185824      -1.35130764       1.37315971       0.00000000
Si      -2.68363091      -2.70632288      -0.01000709       0.00000000
Si      -2.69384474       0.03464883      -2.69780108       0.00000000
Si       0.00537570       2.72057663       2.67533618       0.00000000
Si       2.69834078       0.00876402       2.69905561       0.00000000
Si       2.70448211       0.03559365      -2.70308179       0.00000000
Si      -2.68980482       2.73095336      -0.01003627       0.00000000
