10
Lattice="10.86 0.0 0.0 0.0 10.86 0.0 0.0 0.0 10.86" Properties=species:S:1:pos:R:3:initial_magmoms:R:1 pbc="T T T"
Si      -1.38164178      -1.33335822      -1.34439198       0.00000000
Si       1.33335822       1.38164178      -1.34439198       0.00000000
Si      -1.38164178       1.38164178       1.37060802       0.00000000
Si       1.34260008      -1.34260008       1.51400346       0.00000000
Si       2.58762306      -2.58762306       0.08036400       0.00000000
Si      -0.02414178      -2.69085822      -2.70189198       0.00000000
Si       2.69085822       0.02414178      -2.70189198       0.00000000
Si      -2.73914178      -2.69085822       0.01310802       0.00000000
Si       2.69085822       2.73914178       0.01310802       0.00000000
Si      -0.02414178       2.73914178      -2.70189198       0.00000000
