10
Lattice="16.28999089631971 0.0 0.0 0.0 16.28999089631971 0.0 0.0 0.0 34.474598006748145" Properties=species:S:1:pos:R:3:initial_magmoms:R:1 pbc="T T T"
Si      -1.68733286       1.75536153       0.16895680       0.00000000
Si      -0.98878508      -1.76854014       1.36838861       0.00000000
Si       1.82588094       0.90271035       1.37270483       0.00000000
Si       0.92735712      -0.51746814      -2.38347161       0.00000000
Si      -2.22401573      -0.38392272       2.88250691       0.00000000
Si       0.51067521       2.36064457       2.86255300       0.00000000
Si       1.48900374      -2.83840218      -1.95588294       0.00000000
Si      -3.44752505       0.89821431      -1.41211480       0.00000000
Si       3.52983123       1.72828755      -0.17323495       0.00000000
Si      -3.49080758       1.05450057       1.58075225       0.00000000
