10
Lattice="16.28999089631971 0.0 0.0 0.0 16.28999089631971 0.0 0.0 0.0 34.474598006748145" Properties=species:S:1:pos:R:3:initial_magmoms:R:1 pbc="T T T"
Si      -0.46027395       0.54463334      -2.25195095       0.00000000
Si       0.62587809      -2.28512603      -0.48881560       0.00000000
Si      -1.97009631      -0.35381391       1.42083688       0.00000000
Si       1.82047266       1.15019780       1.21967748       0.00000000
Si      -2.30961249       2.14377377      -2.03238211       0.00000000
Si       1.96677315      -0.04319131       3.28774083       0.00000000
Si       0.99732267      -3.39654386       1.47909898       0.00000000
Si      -3.84593379       0.78720773       0.50195043       0.00000000
Si      -1.32172173      -1.42460318      -3.47855783       0.00000000
Si       1.42293150       1.37938181      -3.55898711       0.00000000
