10
Lattice="16.28999089631971 0.0 0.0 0.0 16.28999089631971 0.0 0.0 0.0 34.474598006748145" Properties=species:S:1:pos:R:3:initial_magmoms:R:1 pbc="T T T"
Si      -0.22972158      -1.83754132       1.43383381       0.00000000
Si      -1.50231267       0.20305485      -1.81746735       0.00000000
Si      -0.73985922       2.03261733       1.00531431       0.00000000
Si       2.36841939       0.08436591      -0.32730202       0.00000000
Si       0.07916940       3.43124415      -0.69366377       0.00000000
Si      -0.72848880       2.32658667      -2.64144518       0.00000000
Si      -1.15652484      -3.50294363       0.02954475       0.00000000
Si      -3.70577952      -0.34189452      -0.96435847       0.00000000
Si      -1.75026276      -1.42268715       3.13536302       0.00000000
Si       0.04364091       2.22171165       3.22099797       0.00000000
