10
Lattice="16.28999089631971 0.0 0.0 0.0 16.28999089631971 0.0 0.0 0.0 34.474598006748145" Properties=species:S:1:pos:R:3:initial_magmoms:R:1 pbc="T T T"
Si       1.35536058       1.32431184      -1.36543617       0.00000000
Si       1.39517334      -1.29059154       1.37567513       0.00000000
Si      -1.36032903      -1.38859218      -1.36671173       0.00000000
Si      -1.22005584       1.45600020       1.50688552       0.00000000
Si      -0.45154251      -1.99863639       2.79978709       0.00000000
Si      -2.26712817      -0.24633738       2.74493798       0.00000000
Si      -2.70334179       2.67804342       0.01634097       0.00000000
Si       0.00211770       2.68315848      -2.72466690       0.00000000
Si       2.70389565       2.70857088       0.01647887       0.00000000
Si      -2.71187775      -0.03147228      -2.72442558       0.00000000
