10
Lattice="16.28999089631971 0.0 0.0 0.0 16.28999089631971 0.0 0.0 0.0 34.474598006748145" Properties=species:S:1:pos:R:3:initial_magmoms:R:1 pbc="T T T"
Si       1.84671585       0.70804485      -1.42411196       0.00000000
Si      -0.85384035      -1.89156222      -1.42883499       0.00000000
Si      -1.81558566       1.75229901      -0.05484912       0.00000000
Si       0.28944072       0.13885596       2.68236655       0.00000000
Si       2.36775150       1.20273957       1.97594716       0.00000000
Si       0.45154251       1.99863639      -2.79978709       0.00000000
Si      -2.28076290      -0.72485613      -2.82054081       0.00000000
Si      -0.76851333       3.45463659      -1.29290157       0.00000000
Si      -2.73704580      -2.72631069      -0.12179882       0.00000000
Si      -3.59026713       0.62449344      -1.35009496       0.00000000
