10
Lattice="16.28999089631971 0.0 0.0 0.0 16.28999089631971 0.0 0.0 0.0 34.474598006748145" Properties=species:S:1:pos:R:3:initial_magmoms:R:1 pbc="T T T"
Si      -1.87583748       1.14102165      -0.91888645       0.00000000
Si       0.24228117      -1.28101532       2.03083075       0.00000000
Si       1.97009631       0.35381391      -1.42083688       0.00000000
Si       0.62527536       3.08168193       1.37240004       0.00000000
Si       1.94616630       0.13374416       3.14904944       0.00000000
Si       2.59597440      -1.93131212      -1.90965247       0.00000000
Si       1.05033033      -3.38226242       1.31793014       0.00000000
Si      -1.58220535       3.39770793       0.53135728       0.00000000
Si      -2.49457634      -0.36997196      -2.96936773       0.00000000
Si      -2.00521266      -2.08583906       2.61958827       0.00000000
