10
Lattice="16.28999089631971 0.0 0.0 0.0 16.28999089631971 0.0 0.0 0.0 34.474598006748145" Properties=species:S:1:pos:R:3:initial_magmoms:R:1 pbc="T T T"
Si      -1.33646418       1.36915821       1.29483215       0.00000000
Si       1.33928235       1.36860435      -1.36578091       0.00000000
Si      -1.37639097      -1.34371323      -1.36733227       0.00000000
Si       1.39572720      -1.07603595       1.65947018       0.00000000
Si       2.68255575      -2.67380802       0.01441039       0.00000000
Si      -0.09488925       2.54677860       2.86397883       0.00000000
Si       2.69596242       0.01757691      -2.72656301       0.00000000
Si      -0.01922220      -2.69922042      -2.72673538       0.00000000
Si      -2.72468169      -2.70433548       0.01427249       0.00000000
Si      -2.83937958       0.20766492       2.58594104       0.00000000
