10
Lattice="16.28999089631971 0.0 0.0 0.0 16.28999089631971 0.0 0.0 0.0 34.474598006748145" Properties=species:S:1:pos:R:3:initial_magmoms:R:1 pbc="T T T"
Si       0.37937781       2.03322006       1.11163403       0.00000000
Si      -1.87232373      -0.02573820      -1.54201516       0.00000000
Si       1.48823811       0.36575937      -1.89338046       0.00000000
Si      -0.80420472      -1.92754683       1.35757595       0.00000000
Si       2.45397447      -0.38030634       0.94201892       0.00000000
Si       1.87004313      -1.88843454      -2.58214883       0.00000000
Si       2.10481461       3.06792828      -0.12831453       0.00000000
Si      -3.73181094      -0.20830023      -0.18823141       0.00000000
Si      -1.62324963      -2.07441747      -2.71777198       0.00000000
Si       0.44598762       2.12141412      -3.17094082       0.00000000
