10
Lattice="16.28999089631971 0.0 0.0 0.0 16.28999089631971 0.0 0.0 0.0 34.474598006748145" Properties=species:S:1:pos:R:3:initial_magmoms:R:1 pbc="T T T"
Si       1.78165359      -0.28678545      -1.50474809       0.00000000
Si      -0.24907410       2.04867927       1.17575682       0.00000000
Si      -0.11049507      -2.06966079       1.16613840       0.00000000
Si      -2.00529900      -0.78850116      -1.30965624       0.00000000
Si      -1.08892134       2.21928444      -2.16117928       0.00000000
Si       0.74468106       1.00691748      -3.24054507       0.00000000
Si       3.49329276       0.18598293       0.13562314       0.00000000
Si      -3.50699265      -0.94900653       0.47392256       0.00000000
Si      -0.26498943       3.69701550      -0.44523968       0.00000000
Si       0.50648868      -3.67971552      -0.69162977       0.00000000
