10
Lattice="16.28999089631971 0.0 0.0 0.0 16.28999089631971 0.0 0.0 0.0 34.474598006748145" Properties=species:S:1:pos:R:3:initial_magmoms:R:1 pbc="T T T"
Si       0.17234820       2.17051218       0.83090723       0.00000000
Si       1.52161632       0.25280451      -1.80422909       0.00000000
Si      -2.39526531      -0.13478346      -0.34036790       0.00000000
Si       0.96060501      -1.94346216       1.25987489       0.00000000
Si      -0.97648776      -2.19975273       2.70236182       0.00000000
Si      -2.85117354      -2.43152685      -0.64329636       0.00000000
Si       1.61723862       2.12607306       2.72149524       0.00000000
Si      -1.84785615       2.59801065       2.10957078       0.00000000
Si      -3.39389118       0.60072633       1.76513488       0.00000000
Si       0.86830587       3.69214479      -0.94219129       0.00000000
