10
Lattice="16.28999089631971 0.0 0.0 0.0 16.28999089631971 0.0 0.0 0.0 34.474598006748145" Properties=species:S:1:pos:R:3:initial_magmoms:R:1 pbc="T T T"
Si      -1.34936586      -1.34742735       1.36110960       0.00000000
Si       1.32796080      -1.33718094      -1.40265841       0.00000000
Si       1.36462959       1.36360332       1.35883428       0.00000000
Si      -1.37108043       1.26705249      -1.50495839       0.00000000
Si       2.33487828       0.45872640      -2.73642072       0.00000000
Si       0.33286986       2.09262969      -3.05089818       0.00000000
Si      -2.68628616       2.72498671      -0.01511022       0.00000000
Si      -2.71026504      -2.71596654      -0.02871391       0.00000000
Si      -2.70622512       0.00645084       2.72223644       0.00000000
Si       0.00742824      -2.70795186       2.72254671       0.00000000
