10
Lattice="16.28999089631971 0.0 0.0 0.0 16.28999089631971 0.0 0.0 0.0 34.474598006748145" Properties=species:S:1:pos:R:3:initial_magmoms:R:1 pbc="T T T"
Si      -0.37144458       1.11141783      -1.96791458       0.00000000
Si      -1.91708865      -0.33953247       1.25966804       0.00000000
Si       1.41985269       1.00243773       1.54870323       0.00000000
Si       0.79741179      -2.10691602      -0.68049447       0.00000000
Si      -2.35419822      -0.46046943      -2.27432498       0.00000000
Si       3.13163847      -1.60809993      -0.68842363       0.00000000
Si       3.54799458       0.49348926       0.68125291       0.00000000
Si      -3.54658061      -1.22552928      -0.21160520       0.00000000
Si      -2.72513781       1.76171463       1.97256865       0.00000000
Si      -0.99732267       3.39654386      -1.47909898       0.00000000
