10
Lattice="16.28999089631971 0.0 0.0 0.0 16.28999089631971 0.0 0.0 0.0 34.474598006748145" Properties=species:S:1:pos:R:3:initial_magmoms:R:1 pbc="T T T"
Si       1.35573525      -1.35644875      -1.36150606       0.00000000
Si      -1.36075257       1.35891180      -1.35943758       0.00000000
Si       1.34654769       1.34750880       1.38522460       0.00000000
Si      -1.36368477      -1.35160085       1.38219083       0.00000000
Si       2.70337437      -2.70610199      -0.00244770       0.00000000
Si      -2.66694993       0.21543525       2.73587115       0.00000000
Si       2.71090035       0.00127062      -2.71649642       0.00000000
Si      -0.00241092      -2.71301771      -2.71715143       0.00000000
Si       2.71345788       2.71751409      -0.00010342       0.00000000
Si      -0.00312768       2.71647153      -2.71670326       0.00000000
