10
Lattice="16.28999089631971 0.0 0.0 0.0 16.28999089631971 0.0 0.0 0.0 34.474598006748145" Properties=species:S:1:pos:R:3:initial_magmoms:R:1 pbc="T T T"
Si       0.75409668      -0.93151107      -2.01828199       0.00000000
Si       0.40681017      -1.75968164       1.51774503       0.00000000
Si       1.40237352       1.90363311      -0.23777144       0.00000000
Si      -2.21598476       0.90466515       0.00134451       0.00000000
Si      -1.30791270      -0.74544669      -3.22123929       0.00000000
Si      -2.42920457       1.14007194      -2.35706406       0.00000000
Si       0.52277868       3.31683948       1.40446143       0.00000000
Si      -1.82929532       3.00553758       0.99514430       0.00000000
Si       1.17545382      -3.22063793      -1.47516887       0.00000000
Si      -0.36033480      -3.70700846       0.34612516       0.00000000
