10
Lattice="16.28999089631971 0.0 0.0 0.0 16.28999089631971 0.0 0.0 0.0 34.474598006748145" Properties=species:S:1:pos:R:3:initial_magmoms:R:1 pbc="T T T"
Si       0.27872190      -2.10617320       1.01579460       0.00000000
Si      -1.10003112       1.57478688       1.36502247       0.00000000
Si      -1.14614811      -0.33280470      -2.10870891       0.00000000
Si       2.19537072       1.02667725      -0.46726896       0.00000000
Si       2.19155886      -2.55577834      -0.35984606       0.00000000
Si      -0.38678976       3.43552842      -0.07439622       0.00000000
Si      -0.08474058       1.39504302      -3.25219750       0.00000000
Si       0.63335520      -1.31561624       3.33535027       0.00000000
Si       2.11310622      -1.52142410      -2.55756843       0.00000000
Si       2.18979954       0.87469155      -2.82574648       0.00000000
