10
Lattice="16.28999089631971 0.0 0.0 0.0 16.28999089631971 0.0 0.0 0.0 34.474598006748145" Properties=species:S:1:pos:R:3:initial_magmoms:R:1 pbc="T T T"
Si      -0.82471383      -2.08617885       0.89230652       0.00000000
Si      -0.67987944       1.91024685       1.33523640       0.00000000
Si      -1.45831338       0.86022603      -1.88059037       0.00000000
Si       1.82524563      -2.18419578      -0.38666731       0.00000000
Si       2.61581562      -0.37884024      -1.62551268       0.00000000
Si      -1.96716411      -2.87293698      -1.22581397       0.00000000
Si      -0.54982008       3.66204087      -0.34691807       0.00000000
Si      -3.53662416      -0.20365758      -1.17417099       0.00000000
Si      -2.71215468       1.56747267       2.50647705       0.00000000
Si       1.49397219      -0.46235907      -3.74925253       0.00000000
