10
Lattice="16.28999089631971 0.0 0.0 0.0 16.28999089631971 0.0 0.0 0.0 34.474598006748145" Properties=species:S:1:pos:R:3:initial_magmoms:R:1 pbc="T T T"
Si      -1.38820122      -0.99412983      -1.58531528       0.00000000
Si       1.75415607       0.60926229      -1.43100689       0.00000000
Si       0.17234820      -1.39833360       1.90596369       0.00000000
Si      -0.67421052       2.26579239       0.25669800       0.00000000
Si      -1.25814186       0.75766419      -3.26746975       0.00000000
Si       2.06355204       2.89284336      -0.90716508       0.00000000
Si      -3.42047646      -1.33690401      -0.41407463       0.00000000
Si       0.18946899       2.86572051       2.37840385       0.00000000
Si      -1.20519936      -0.36473310       3.56595099       0.00000000
Si       2.35056555       2.78335827       1.44117690       0.00000000
