10
Lattice="16.28999089631971 0.0 0.0 0.0 16.28999089631971 0.0 0.0 0.0 34.474598006748145" Properties=species:S:1:pos:R:3:initial_magmoms:R:1 pbc="T T T"
Si      -0.38180502       2.25419391       0.68876838       0.00000000
Si      -1.71163917      -0.47276838      -1.64037124       0.00000000
Si      -0.13005936      -1.75179402       1.68215448       0.00000000
Si       2.43397035      -0.07667703      -0.46751028       0.00000000
Si      -0.90849330      -2.80181484      -1.53367230       0.00000000
Si      -3.49329276      -0.18598293      -0.13562314       0.00000000
Si       3.01229793      -0.14840190       1.83646286       0.00000000
Si       1.25814186      -0.75766419       3.26746975       0.00000000
Si      -1.87004313       1.88843454       2.58214883       0.00000000
Si       0.54982008      -3.66204087       0.34691807       0.00000000
