10
Lattice="16.28999089631971 0.0 0.0 0.0 16.28999089631971 0.0 0.0 0.0 34.474598006748145" Properties=species:S:1:pos:R:3:initial_magmoms:R:1 pbc="T T T"
Si       1.34540739       1.35250983      -1.38794809       0.00000000
Si      -1.35891180      -1.37476197      -1.38429378       0.00000000
Si       1.85922657      -0.89901252       1.27652613       0.00000000
Si      -1.48796118       1.32898707       1.53546498       0.00000000
Si       2.69180847       2.71276297       0.00944605       0.00000000
Si      -2.72165175       2.70701097      -0.00330956       0.00000000
Si       2.72596860      -2.71360449      -0.00885998       0.00000000
Si      -2.69819415      -2.74336632      -0.01851287       0.00000000
Si      -0.00223173       2.70216306      -2.74700645       0.00000000
Si       2.71173114      -0.01291797      -2.74276608       0.00000000
