10
Lattice="16.28999089631971 0.0 0.0 0.0 16.28999089631971 0.0 0.0 0.0 34.474598006748145" Properties=species:S:1:pos:R:3:initial_magmoms:R:1 pbc="T T T"
Si      -1.34763912       1.34965323      -1.35905836       0.00000000
Si      -1.34540739      -1.35250983       1.38794809       0.00000000
Si       1.36632375      -1.36542780      -1.35481798       0.00000000
Si       1.34640108       1.36025314       1.39739414       0.00000000
Si       0.51381918      -2.25152235       2.66447422       0.00000000
Si       2.29008078      -0.40024530       2.70632641       0.00000000
Si      -2.70337437       2.70610199       0.00244770       0.00000000
Si      -2.70578529      -0.00691572      -2.71470374       0.00000000
Si       0.00752598       2.70737261      -2.71404872       0.00000000
Si      -2.70431919      -2.72727180       0.00365431       0.00000000
