10
Lattice="16.28999089631971 0.0 0.0 0.0 16.28999089631971 0.0 0.0 0.0 34.474598006748145" Properties=species:S:1:pos:R:3:initial_magmoms:R:1 pbc="T T T"
Si       1.22225499       1.62261432       1.10684206       0.00000000
Si      -1.72543680      -1.03470822       1.23994856       0.00000000
Si       1.36215351      -1.55349585      -1.16872400       0.00000000
Si      -1.24247088       1.15507503      -1.67294975       0.00000000
Si      -0.61657650      -2.70216891      -1.76506593       0.00000000
Si       1.78137666       2.89189921      -0.85776295       0.00000000
Si      -1.65882699      -0.94651416      -3.04262630       0.00000000
Si       0.34915986      -3.44823462       1.07033344       0.00000000
Si      -3.38758695       0.57679632       1.29645246       0.00000000
Si      -2.10481461      -3.06792828       0.12831453       0.00000000
