10
Lattice="16.28999089631971 0.0 0.0 0.0 16.28999089631971 0.0 0.0 0.0 34.474598006748145" Properties=species:S:1:pos:R:3:initial_magmoms:R:1 pbc="T T T"
Si      -2.12814189       0.50894847       0.86745032       0.00000000
Si       1.24247088      -1.15507503       1.67294975       0.00000000
Si       1.05158466       2.17172971      -0.47116459       0.00000000
Si      -0.41635611      -2.10158919      -1.36967654       0.00000000
Si       3.02384754       1.73682418       0.81518680       0.00000000
Si      -3.54799458      -0.49348926      -0.68125291       0.00000000
Si      -0.48296592      -2.18978325       2.91289831       0.00000000
Si      -2.14511607      -0.57827871       2.96940221       0.00000000
Si       2.46472587       0.46753929       2.77979181       0.00000000
Si       2.60462439      -2.70857088       0.50422575       0.00000000
