10
Lattice="16.28999089631971 0.0 0.0 0.0 16.28999089631971 0.0 0.0 0.0 34.474598006748145" Properties=species:S:1:pos:R:3:initial_magmoms:R:1 pbc="T T T"
Si      -1.24405101      -1.92962348      -0.54176861       0.00000000
Si       1.97207947       0.29799297      -1.34413085       0.00000000
Si      -2.54389527       0.94004703      -0.50636318       0.00000000
Si       0.90940554      -0.74243141       2.52037032       0.00000000
Si      -2.42598825       0.30729456       2.32827775       0.00000000
Si       2.26571161       2.55467925       0.10611287       0.00000000
Si       0.46724607       3.06426303       1.61110229       0.00000000
Si      -2.90281284      -1.65544519       1.12945741       0.00000000
Si      -1.75332528       2.74540257      -1.74520855       0.00000000
Si       1.35334062      -1.21300064      -3.39461214       0.00000000
