10
Lattice="16.28999089631971 0.0 0.0 0.0 16.28999089631971 0.0 0.0 0.0 34.474598006748145" Properties=species:S:1:pos:R:3:initial_magmoms:R:1 pbc="T T T"
Si      -0.04478121      -1.78449619       1.61689402       0.00000000
Si       1.71260028      -0.67152104      -1.56649213       0.00000000
Si      -1.62279351       0.37820493      -1.75858470       0.00000000
Si       0.42212277       2.13574932       1.30251999       0.00000000
Si       3.34380499       0.64301517      -0.42234854       0.00000000
Si       2.19343221       2.70712107      -0.37701441       0.00000000
Si      -1.37432214       1.48190130       3.00401473       0.00000000
Si      -1.45101546      -0.91421435       3.27219277       0.00000000
Si       2.21918670      -1.91626926       2.52323171       0.00000000
Si      -3.76046505       0.62911980      -0.79319199       0.00000000
