10
Lattice="16.28999089631971 0.0 0.0 0.0 16.28999089631971 0.0 0.0 0.0 34.474598006748145" Properties=species:S:1:pos:R:3:initial_magmoms:R:1 pbc="T T T"
Si       1.40623425      -0.87028185      -1.65529875       0.00000000
Si      -2.20419990      -0.66551492      -0.55128360       0.00000000
Si       0.07669332       2.39611565      -0.26817805       0.00000000
Si       0.07845264      -1.03435424       2.19772238       0.00000000
Si       0.08226450       2.54810135       2.09029947       0.00000000
Si      -3.25925433       1.18861940       0.44885952       0.00000000
Si      -2.11310622       1.52142410       2.55756843       0.00000000
Si       1.45101546       0.91421435      -3.27219277       0.00000000
Si      -2.19784680       2.91646712      -0.69462906       0.00000000
Si       0.24184134      -2.78147256      -2.54584706       0.00000000
