10
Lattice="16.28999089631971 0.0 0.0 0.0 16.28999089631971 0.0 0.0 0.0 34.474598006748145" Properties=species:S:1:pos:R:3:initial_magmoms:R:1 pbc="T T T"
Si      -0.92299140       0.42805233      -2.09874575       0.00000000
Si       1.15037278      -2.06410590      -0.04533412       0.00000000
Si       1.27720183       2.00684655       0.51867062       0.00000000
Si      -1.77130944      -0.57137175       1.67953440       0.00000000
Si       0.12878874      -0.78739344       3.12222819       0.00000000
Si       1.10348038       1.35902583       2.84522464       0.00000000
Si      -2.19343221      -2.70712107       0.37701441       0.00000000
Si       3.30671429      -1.31074227      -0.57762221       0.00000000
Si      -0.48083193      -3.37864211      -1.18947772       0.00000000
Si      -2.65227264       1.76917545       1.87317833       0.00000000
