10
Lattice="16.28999089631971 0.0 0.0 0.0 16.28999089631971 0.0 0.0 0.0 34.474598006748145" Properties=species:S:1:pos:R:3:initial_magmoms:R:1 pbc="T T T"
Si      -1.35565380      -1.35532800       1.38595891       0.00000000
Si       1.36231641       1.35643572       1.38823423       0.00000000
Si      -1.27768986       1.49970627      -1.44911296       0.00000000
Si       1.23354396      -1.56700026      -1.42460495       0.00000000
Si       2.56228668      -0.15765462      -2.73480731       0.00000000
Si       2.71867068       2.68931610       0.02969299       0.00000000
Si      -2.69990460      -2.72383461      -0.00590550       0.00000000
Si       2.73072528      -2.71295289       0.01080090       0.00000000
Si      -2.72148885       2.72331333       0.00408524       0.00000000
Si       0.00327429      -2.71270854       2.74667205       0.00000000
