10
Lattice="16.28999089631971 0.0 0.0 0.0 16.28999089631971 0.0 0.0 0.0 34.474598006748145" Properties=species:S:1:pos:R:3:initial_magmoms:R:1 pbc="T T T"
Si       1.35562122       1.35795069       1.35636934       0.00000000
Si       1.35654975      -1.35733167      -1.35650724       0.00000000
Si      -1.35597960      -1.35762489       1.35847229       0.00000000
Si      -1.35856971       1.35757602      -1.35674856       0.00000000
Si       0.00451233       2.70909216       2.71149760       0.00000000
Si       2.71410195       0.00050499      -2.71332475       0.00000000
Si       2.71174473       0.00053757       2.71577245       0.00000000
Si      -0.00014661      -2.71344159      -2.71446241       0.00000000
Si      -0.00148239       2.71448415      -2.71356607       0.00000000
Si       2.71363128       2.71446786       0.00031027       0.00000000
