10
Lattice="16.28999089631971 0.0 0.0 0.0 16.28999089631971 0.0 0.0 0.0 34.474598006748145" Properties=species:S:1:pos:R:3:initial_magmoms:R:1 pbc="T T T"
Si       1.35425286      -1.35728280       1.35512826       0.00000000
Si       1.35597960       1.35762489      -1.35847229       0.00000000
Si      -1.36036161      -1.35769005      -1.35771385       0.00000000
Si      -1.36516716       1.35689184       1.36336769       0.00000000
Si      -0.01567098      -2.69842221       2.71011861       0.00000000
Si       2.70731655       0.00957852       2.71235946       0.00000000
Si       2.71153566      -2.71287144      -0.00155136       0.00000000
Si       2.71160082       2.71557558      -0.00210295       0.00000000
Si       2.71252935       0.00029322      -2.71497953       0.00000000
Si      -0.00259011       2.71520091      -2.71522086       0.00000000
