10
Lattice="16.28999089631971 0.0 0.0 0.0 16.28999089631971 0.0 0.0 0.0 34.474598006748145" Properties=species:S:1:pos:R:3:initial_magmoms:R:1 pbc="T T T"
Si       1.11553920       1.58661342      -1.25111834       0.00000000
Si      -1.71478314      -1.14207561      -1.26190889       0.00000000
Si       0.41019849       1.14624585       2.09340218       0.00000000
Si       1.54427571      -1.92924099       0.10397545       0.00000000
Si      -0.58507164      -0.65818116       3.18807471       0.00000000
Si       0.86447772      -2.38378086       2.33000148       0.00000000
Si       2.29731354       0.10518453      -2.66526714       0.00000000
Si      -0.42567399      -2.60281620      -2.66750799       0.00000000
Si       3.00983814       2.38708773       0.05384935       0.00000000
Si      -0.39824163       2.82471858      -2.64210019       0.00000000
