10
Lattice="16.28999089631971 0.0 0.0 0.0 16.28999089631971 0.0 0.0 0.0 34.474598006748145" Properties=species:S:1:pos:R:3:initial_magmoms:R:1 pbc="T T T"
Si      -1.11553920      -1.58661342       1.25111834       0.00000000
Si       1.18177434      -1.48142889      -1.41414880       0.00000000
Si      -1.51378083       1.23810516      -1.39098186       0.00000000
Si       1.89429894       0.80047431       1.30496769       0.00000000
Si      -0.70534071      -0.44036757       3.34452052       0.00000000
Si       2.44102392      -2.85322608       0.02002975       0.00000000
Si       2.54218212      -0.13284495      -2.76920811       0.00000000
Si      -0.16505028       2.57570964      -2.77348296       0.00000000
Si       0.42873651      -3.51585441       1.35509378       0.00000000
Si       2.69359404       2.68213221      -0.01020449       0.00000000
