10
Lattice="16.28999089631971 0.0 0.0 0.0 16.28999089631971 0.0 0.0 0.0 34.474598006748145" Properties=species:S:1:pos:R:3:initial_magmoms:R:1 pbc="T T T"
Si       1.35110889      -1.35114147      -1.35512826       0.00000000
Si      -1.34873055      -1.33760448       1.38250110       0.00000000
Si      -1.36296801       1.36308204      -1.35140500       0.00000000
Si       1.34540739       1.35565380       1.38291480       0.00000000
Si      -2.21547258       0.47698749       2.66788721       0.00000000
Si      -0.43921098       2.32826454       2.70973939       0.00000000
Si       0.16505028      -2.57570964       2.77348296       0.00000000
Si       2.70723240      -2.70855459       0.00427485       0.00000000
Si       2.70911895       0.00537570      -2.71118733       0.00000000
Si      -0.00451233      -2.70909216      -2.71149760       0.00000000
