10
Lattice="16.28999089631971 0.0 0.0 0.0 16.28999089631971 0.0 0.0 0.0 34.474598006748145" Properties=species:S:1:pos:R:3:initial_magmoms:R:1 pbc="T T T"
Si      -0.14193477       2.30738029       0.12459127       0.00000000
Si      -1.79225838      -0.87068421      -1.23808693       0.00000000
Si       2.26421226      -0.46237536      -0.53404630       0.00000000
Si      -0.19139121      -0.81741591       2.23247279       0.00000000
Si      -0.97985979      -2.92252374       1.50650630       0.00000000
Si       1.94852835       2.80259743       1.10256721       0.00000000
Si      -3.36261438       0.90085329      -1.30638115       0.00000000
Si      -2.05477173       2.75698543       1.50023192       0.00000000
Si       3.33853776       1.67655051      -0.51980828       0.00000000
Si       2.02349493      -1.03834089       3.15184188       0.00000000
