10
Lattice="16.28999089631971 0.0 0.0 0.0 16.28999089631971 0.0 0.0 0.0 34.474598006748145" Properties=species:S:1:pos:R:3:initial_magmoms:R:1 pbc="T T T"
Si       1.89157851       0.65653587       1.47929346       0.00000000
Si       1.93486104       0.50024961      -1.51357360       0.00000000
Si      -0.83799018      -1.97149725       1.30224216       0.00000000
Si      -1.85706000       1.74335580      -0.13455443       0.00000000
Si       1.38673512      -1.36669842      -2.81978237       0.00000000
Si       0.45677160       1.96322193       2.78603314       0.00000000
Si      -2.28178917      -0.74789019       2.75544036       0.00000000
Si      -0.86107311       3.29377025       1.38444689       0.00000000
Si      -2.58849729      -1.85049513      -2.04272450       0.00000000
Si      -3.59450253       0.74974725       1.26235158       0.00000000
