10
Lattice="16.28999089631971 0.0 0.0 0.0 16.28999089631971 0.0 0.0 0.0 34.474598006748145" Properties=species:S:1:pos:R:3:initial_magmoms:R:1 pbc="T T T"
Si       0.54812592       1.86694803       1.30620877       0.00000000
Si      -0.08399124      -1.99200636       1.30831173       0.00000000
Si       1.34996859      -0.51596946      -1.91037644       0.00000000
Si      -2.21488614       0.22092498      -0.91936909       0.00000000
Si      -1.38673512       1.36669842       2.81978237       0.00000000
Si       0.89792109      -2.81975013      -2.20437598       0.00000000
Si       0.24071733       0.57596553      -3.68588818       0.00000000
Si       1.37101527      -3.55319109       0.00361983       0.00000000
Si      -2.02349493       1.03834089      -3.15184188       0.00000000
Si      -3.00335472      -1.88418285      -1.64533558       0.00000000
