10
Lattice="16.28999089631971 0.0 0.0 0.0 16.28999089631971 0.0 0.0 0.0 34.474598006748145" Properties=species:S:1:pos:R:3:initial_magmoms:R:1 pbc="T T T"
Si      -0.87959484       1.41320637       1.64223287       0.00000000
Si       2.31764346      -0.46063233       0.18916222       0.00000000
Si      -1.40237352      -1.90363311       0.23777144       0.00000000
Si      -0.56347110       1.22052825      -1.99918306       0.00000000
Si      -0.64827684      -2.83514418      -1.78051056       0.00000000
Si       3.13667208       0.93799449      -1.50981586       0.00000000
Si      -3.23166884       1.10190447       1.23291574       0.00000000
Si      -3.61835828      -0.99896796       0.23911595       0.00000000
Si       1.55519001      -2.29019481      -2.63361944       0.00000000
Si      -0.74890017       0.39622167       3.79158736       0.00000000
