10
Lattice="16.28999089631971 0.0 0.0 0.0 16.28999089631971 0.0 0.0 0.0 34.474598006748145" Properties=species:S:1:pos:R:3:initial_magmoms:R:1 pbc="T T T"
Si       1.35744570       1.35697953       1.35612802       0.00000000
Si      -1.35688370       1.35695184      -1.35757595       0.00000000
Si      -1.35692279      -1.35921899       1.35685199       0.00000000
Si       1.35817875      -1.35820901      -1.35764490       0.00000000
Si       0.00172674       2.71284836      -2.71501401       0.00000000
Si      -2.71430741       2.71407011       0.00000000       0.00000000
Si       2.71161711       0.00112633       2.71777198       0.00000000
Si       2.71479366       2.71503122      -0.00010342       0.00000000
Si      -2.71460537       0.00451162       2.71560008       0.00000000
Si      -0.00241092      -2.71640405       2.71415214       0.00000000
