10
Lattice="16.28999089631971 0.0 0.0 0.0 16.28999089631971 0.0 0.0 0.0 34.474598006748145" Properties=species:S:1:pos:R:3:initial_magmoms:R:1 pbc="T T T"
Si      -1.39161465      -1.46235330      -1.25038200       0.00000000
Si      -1.23523065       1.38461742       1.51411830       0.00000000
Si       0.98878508       1.76854014      -1.36838861       0.00000000
Si       1.47548141      -1.31176854       1.48056070       0.00000000
Si      -2.50202250       2.82304071       0.21236364       0.00000000
Si      -0.69854778       3.52390167      -1.19943181       0.00000000
Si      -2.59158492       0.05173704       2.87265954       0.00000000
Si       2.81466602       2.67125049       0.00431622       0.00000000
Si       0.11777507      -2.65909815       2.87228032       0.00000000
Si       2.87262584      -2.71860552       0.00214087       0.00000000
