10
Lattice="16.28999089631971 0.0 0.0 0.0 16.28999089631971 0.0 0.0 0.0 34.474598006748145" Properties=species:S:1:pos:R:3:initial_magmoms:R:1 pbc="T T T"
Si       1.35674686       1.35461124      -1.35767938       0.00000000
Si      -1.36069567       1.35501849       1.35736911       0.00000000
Si      -1.35870388      -1.36034532      -1.35757595       0.00000000
Si       1.35655138      -1.35992178       1.36250582       0.00000000
Si      -0.00117614       2.71202436      -2.71491058       0.00000000
Si       2.71357354      -0.00257382      -2.71515191       0.00000000
Si       2.71420885       2.71463076      -0.00144793       0.00000000
Si      -2.71681918       2.71243161      -0.00203400       0.00000000
Si       0.00915009       2.72067435       2.71008414       0.00000000
Si      -2.71589065      -0.00285075      -2.71491058       0.00000000
