10
Lattice="16.28999089631971 0.0 0.0 0.0 16.28999089631971 0.0 0.0 0.0 34.474598006748145" Properties=species:S:1:pos:R:3:initial_magmoms:R:1 pbc="T T T"
Si      -1.35655138       1.35992178      -1.36250582       0.00000000
Si       1.35940050      -1.35772263      -1.36305742       0.00000000
Si       1.36793646       1.35179307       1.37770913       0.00000000
Si      -1.36342739      -1.36001952       1.37870889       0.00000000
Si       2.71094922      -2.71484253      -0.00534357       0.00000000
Si       2.71622718       2.71241532      -0.00389563       0.00000000
Si      -2.71471940      -2.71705797       0.00158583       0.00000000
Si      -2.71724705       2.71494027      -0.00513672       0.00000000
Si       2.71469592      -0.00040725      -2.72001283       0.00000000
Si       0.00019548       2.71453302      -2.72018520       0.00000000
