10
Lattice="16.28999089631971 0.0 0.0 0.0 16.28999089631971 0.0 0.0 0.0 34.474598006748145" Properties=species:S:1:pos:R:3:initial_magmoms:R:1 pbc="T T T"
Si       0.77408614      -1.12775670       1.84746027       0.00000000
Si       1.43806654      -1.05435396      -1.53680949       0.00000000
Si      -2.34102517      -0.48231432      -0.18992067       0.00000000
Si       0.19353986       2.37320865       0.38304747       0.00000000
Si      -2.55248566       0.61282980       1.95953725       0.00000000
Si      -0.31391644      -0.86219712      -3.26709053       0.00000000
Si      -1.00929256      -0.59854347       3.26081615       0.00000000
Si       1.29552904      -3.15420012       0.83332045       0.00000000
Si      -2.36801770      -2.83139748       0.33733413       0.00000000
Si      -1.88080009       2.87650449       1.48530441       0.00000000
