10
Lattice="16.28999089631971 0.0 0.0 0.0 16.28999089631971 0.0 0.0 0.0 34.474598006748145" Properties=species:S:1:pos:R:3:initial_magmoms:R:1 pbc="T T T"
Si       1.85948721       0.18256203      -1.35378375       0.00000000
Si      -1.91987424      -0.78868035      -1.04147819       0.00000000
Si      -0.59631174       2.10448881       0.81098090       0.00000000
Si       0.52597152      -1.50656436       1.73590040       0.00000000
Si      -2.70860346       1.44414108       1.57300784       0.00000000
Si       2.92760622      -1.71924660       1.54580736       0.00000000
Si      -3.70325294      -0.25946712       0.37187770       0.00000000
Si       3.73181094       0.20830023       0.18823141       0.00000000
Si      -1.39843134      -2.81512377      -2.05561800       0.00000000
Si       2.10856131      -1.86611724      -2.52954057       0.00000000
