10
Lattice="16.28999089631971 0.0 0.0 0.0 16.28999089631971 0.0 0.0 0.0 34.474598006748145" Properties=species:S:1:pos:R:3:initial_magmoms:R:1 pbc="T T T"
Si      -0.77408614       1.12775670      -1.84746027       0.00000000
Si       1.91987424       0.78868035       1.04147819       0.00000000
Si       0.52144290      -2.02644342      -1.01413982       0.00000000
Si      -1.78337870       0.52921323       1.41335588       0.00000000
Si       0.66398040       0.07340274      -3.38426975       0.00000000
Si      -0.78872922       2.23282143       2.61448602       0.00000000
Si       1.32356250       2.89316916       1.85245908       0.00000000
Si      -3.32657180       1.74058650       0.11207698       0.00000000
Si       2.44584576      -0.71788401       2.77737859       0.00000000
Si      -3.11511131       0.64544238      -2.03738093       0.00000000
