10
Lattice="16.28999089631971 0.0 0.0 0.0 16.28999089631971 0.0 0.0 0.0 34.474598006748145" Properties=species:S:1:pos:R:3:initial_magmoms:R:1 pbc="T T T"
Si       0.73443465      -0.91214226      -2.02759014       0.00000000
Si       0.04359204      -1.72934640       1.58738375       0.00000000
Si      -2.15798517       0.96112629      -0.16406470       0.00000000
Si       1.44718731       1.81045431       0.61433768       0.00000000
Si      -1.20961395      -0.42757992       3.19721048       0.00000000
Si       2.40129261      -2.04226101       1.73807230       0.00000000
Si      -0.53766774      -2.95002126      -2.18324304       0.00000000
Si       0.89948493       3.45365919      -1.11039295       0.00000000
Si       0.20846313       0.59442210      -3.76349054       0.00000000
Si      -2.50014033       2.03856318      -2.19048271       0.00000000
