10
Lattice="16.28999089631971 0.0 0.0 0.0 16.28999089631971 0.0 0.0 0.0 34.474598006748145" Properties=species:S:1:pos:R:3:initial_magmoms:R:1 pbc="T T T"
Si      -0.56164662       2.32093404      -0.42758868       0.00000000
Si       2.02020435      -0.42749847      -1.27866355       0.00000000
Si       1.51739721      -0.04346172       1.93592213       0.00000000
Si      -1.54603503      -1.99728432      -0.34443590       0.00000000
Si       3.46509477      -0.47193759       0.61192446       0.00000000
Si      -0.66499038      -3.17325942       1.65664326       0.00000000
Si      -0.54740916      -2.73279411      -2.44993868       0.00000000
Si       0.39483702      -1.64874348       3.32641242       0.00000000
Si      -1.48900374       2.83840218       1.95588294       0.00000000
Si       1.84785615      -2.59801065      -2.10957078       0.00000000
