10
Lattice="16.28999089631971 0.0 0.0 0.0 16.28999089631971 0.0 0.0 0.0 34.474598006748145" Properties=species:S:1:pos:R:3:initial_magmoms:R:1 pbc="T T T"
Si       1.34012943       1.38025170       1.34423428       0.00000000
Si      -1.35566032       1.35666378      -1.35978233       0.00000000
Si       1.35788553      -1.35800282      -1.36016155       0.00000000
Si      -1.36500263      -1.35448092       1.36819414       0.00000000
Si       0.02239875      -2.59043938       2.81636938       0.00000000
Si      -2.71416554      -2.71047073      -0.00068949       0.00000000
Si       2.71205694      -2.71385603       0.00148241       0.00000000
Si      -2.71356281       2.71293660       0.00520567       0.00000000
Si       2.71210581       2.71515204      -0.00172373       0.00000000
Si      -2.71386758      -0.00091224      -2.71628957       0.00000000
