10
Lattice="16.28999089631971 0.0 0.0 0.0 16.28999089631971 0.0 0.0 0.0 34.474598006748145" Properties=species:S:1:pos:R:3:initial_magmoms:R:1 pbc="T T T"
Si       0.99862587      -0.73550979      -2.10550278       0.00000000
Si       0.88104465      -1.17597510       2.00107916       0.00000000
Si       1.54603503       1.99728432       0.34443590       0.00000000
Si      -2.56760441       0.31376169      -0.41438490       0.00000000
Si      -2.32336844       1.60479306       2.41832545       0.00000000
Si       2.41740342      -2.80047906       0.93722695       0.00000000
Si       3.39389118      -0.60072633      -1.76513488       0.00000000
Si       0.54271764      -3.03225318      -2.40843124       0.00000000
Si       3.56623938       1.56978585      -0.93422765       0.00000000
Si       0.67341231      -4.04923788      -0.25907675       0.00000000
