10
Lattice="16.28999089631971 0.0 0.0 0.0 16.28999089631971 0.0 0.0 0.0 34.474598006748145" Properties=species:S:1:pos:R:3:initial_magmoms:R:1 pbc="T T T"
Si       1.62949196       0.88599681       1.47127324       0.00000000
Si      -2.07433995       0.50329584       1.10225694       0.00000000
Si      -0.19353986      -2.37320865      -0.38304747       0.00000000
Si       1.19238239       0.76505985      -2.06271978       0.00000000
Si      -2.74602552      -1.76037885       1.57648977       0.00000000
Si       3.54658061       1.22552928       0.21160520       0.00000000
Si       0.82144280       2.98724391       2.18417385       0.00000000
Si      -1.42605103       2.18242017       2.77293137       0.00000000
Si       0.58054628      -3.50096535       1.46441279       0.00000000
Si      -2.53456503      -2.85552297      -0.57296814       0.00000000
