10
Lattice="16.290000149 0.0 0.0 0.0 16.290000149 0.0 0.0 0.0 29.1751946751" Properties=species:S:1:pos:R:3:initial_magmoms:R:1 pbc="T T T"
Si      -0.69292774       2.04774913       0.76905813       0.00000000
Si       2.05232825      -0.61356286       0.90081331       0.00000000
Si      -1.24196590      -1.78665627       0.84488446       0.00000000
Si      -0.64485595      -0.67847688      -2.14484361       0.00000000
Si      -0.68905072      -2.82372654      -1.16563655       0.00000000
H        0.67673548       2.31252679      -2.13378621       0.00000000
Si      -1.30857571       1.53261046       2.95086672       0.00000000
Si      -3.53427843       0.78467139      -0.76999174       0.00000000
Si       1.52840926      -1.86848094       2.83139429       0.00000000
Si       1.06741855       3.53860994       0.44080802       0.00000000
