10
Lattice="16.290000149 0.0 0.0 0.0 16.290000149 0.0 0.0 0.0 29.1751946751" Properties=species:S:1:pos:R:3:initial_magmoms:R:1 pbc="T T T"
Si       1.32688567       1.38258118      -1.37556958       0.00000000
Si       1.34886088      -1.36256077       1.37608890       0.00000000
Si      -1.36334269       1.34781832       1.39047227       0.00000000
Si      -1.38917863      -1.37891593      -1.34128873       0.00000000
Si       2.52574823      -0.09039321      -2.80503742       0.00000000
Si      -2.64730421      -2.74776465       0.08414126       0.00000000
Si      -2.84146473       0.03774393      -2.55824445       0.00000000
Si       2.72104904       0.04368978       2.68798071       0.00000000
Si      -0.07162713       2.80776072      -2.59952735       0.00000000
Si       2.63557541       2.82965448      -0.00647689       0.00000000
