10
Lattice="16.290000149 0.0 0.0 0.0 16.290000149 0.0 0.0 0.0 29.1751946751" Properties=species:S:1:pos:R:3:initial_magmoms:R:1 pbc="T T T"
H       -1.02636775      -1.11027754       0.22135220       0.00000000
Si       1.48340488      -1.06521940      -1.42996382       0.00000000
Si       1.16978002      -0.15926733       2.01775646       0.00000000
Si      -1.30836394       1.60311520      -1.14250062       0.00000000
H       -1.55282797       0.43378641       2.02467098       0.00000000
Si       0.00935046      -2.21680838       2.60986704       0.00000000
Si      -2.00034686      -0.84984931       2.68834831       0.00000000
Si      -2.57856041      -0.05732451      -2.34151360       0.00000000
Si       0.07131762      -2.51001209      -2.59702995       0.00000000
Si       3.05074236      -2.14601204      -0.06911604       0.00000000
