10
Lattice="16.290000149 0.0 0.0 0.0 16.290000149 0.0 0.0 0.0 29.1751946751" Properties=species:S:1:pos:R:3:initial_magmoms:R:1 pbc="T T T"
Si       1.37091754      -1.34596126      -1.33820783       0.00000000
Si       1.37872045       1.33516099       1.34456802       0.00000000
Si      -1.34965909      -1.36523233       1.35609222       0.00000000
Si      -1.34555401       1.35827650      -1.37021302       0.00000000
Si       0.00153126       2.70150104       2.65718921       0.00000000
Si      -0.01475874      -2.69573438      -2.66357857       0.00000000
Si      -2.72064179      -0.00878031       2.68881512       0.00000000
Si       2.74110204       0.01229895      -2.67650318       0.00000000
Si       2.73463491       2.69048900      -0.01356647       0.00000000
Si      -2.69319314       0.00184077      -2.73228616       0.00000000
