10
Lattice="16.290000149 0.0 0.0 0.0 16.290000149 0.0 0.0 0.0 29.1751946751" Properties=species:S:1:pos:R:3:initial_magmoms:R:1 pbc="T T T"
Si      -1.39211083       1.28270719      -1.36189809       0.00000000
Si       1.44078535      -1.36658440      -1.23282703       0.00000000
Si      -1.38061009      -1.31382109       1.35612140       0.00000000
Si       0.87418657       1.88946083       1.06935841       0.00000000
Si      -2.43840125       0.15478758       2.83215285       0.00000000
Si       0.05460408      -2.71485884      -2.57328135       0.00000000
Si      -2.57150684       2.73378783       0.05117329       0.00000000
Si      -0.01194057       2.62402580      -2.70191478       0.00000000
Si       2.78200623      -0.02862153      -2.60201891       0.00000000
Si       2.69993720       2.71823087      -0.09426505       0.00000000
