10
Lattice="16.290000149 0.0 0.0 0.0 16.290000149 0.0 0.0 0.0 29.1751946751" Properties=species:S:1:pos:R:3:initial_magmoms:R:1 pbc="T T T"
Si       1.39233889       1.43620786      -1.17599375       0.00000000
Si       1.70136020      -1.59764176       0.01517110       0.00000000
Si      -0.95684203       1.27107613       1.75348755       0.00000000
Si      -1.59407425      -0.81261037      -1.56160230       0.00000000
Si      -2.07194141       1.21700962      -2.62042846       0.00000000
Si      -0.17479170       2.71671590      -2.30052245       0.00000000
Si       0.62967367      -3.35705952      -1.04843980       0.00000000
Si      -2.40912812       2.68773599       0.53653183       0.00000000
Si      -0.29893779      -2.31432032      -2.88218831       0.00000000
Si       2.35540370      -2.02103516       2.14634322       0.00000000
