10
Lattice="16.290000149 0.0 0.0 0.0 16.290000149 0.0 0.0 0.0 29.1751946751" Properties=species:S:1:pos:R:3:initial_magmoms:R:1 pbc="T T T"
Si       1.30829878      -1.42565194       1.30077605       0.00000000
Si      -1.35265645      -1.38478033      -1.32207395       0.00000000
Si       1.37500633       1.33234282      -1.35466264       0.00000000
Si      -1.29800350       1.35669637       1.41709756       0.00000000
Si       2.66304035      -0.08646732       2.61223023       0.00000000
Si      -2.66716824       2.70132185       0.06190976       0.00000000
Si       0.00723276       2.69107544      -2.68052936       0.00000000
Si      -2.69244869      -0.02450016      -2.68312595       0.00000000
Si      -2.62932820      -0.04678488       2.75548044       0.00000000
Si       0.03554478      -2.73535167      -2.65488437       0.00000000
