10
Lattice="16.290000149 0.0 0.0 0.0 16.290000149 0.0 0.0 0.0 29.1751946751" Properties=species:S:1:pos:R:3:initial_magmoms:R:1 pbc="T T T"
Si      -1.33359715      -1.33988835       1.32876090       0.00000000
Si       1.49767003      -1.23597607      -1.27998873       0.00000000
Si      -1.24952446       1.37039626      -1.41316766       0.00000000
Si       1.41959206       1.42905655       1.23589626       0.00000000
Si       0.65840923       2.16059159      -2.53472341       0.00000000
H       -0.55460935      -0.45810738      -3.33533160       0.00000000
Si       2.36361386       0.49212090      -2.66179539       0.00000000
Si       0.10050930      -2.68605812       2.59073395       0.00000000
Si      -2.66351276       0.07988616       2.61500771       0.00000000
Si      -2.69446376      -2.62235499      -0.08126750       0.00000000
