10
Lattice="16.290000149 0.0 0.0 0.0 16.290000149 0.0 0.0 0.0 29.1751946751" Properties=species:S:1:pos:R:3:initial_magmoms:R:1 pbc="T T T"
Si      -2.06796665       0.71935175      -0.85095290       0.00000000
Si      -0.78563413      -1.49808543       1.70765332       0.00000000
Si       1.05510331      -0.67004843      -2.06779192       0.00000000
Si       0.91973341       2.08157694       0.81521329       0.00000000
H       -1.39041667       2.27783887       1.72795926       0.00000000
Si      -1.31393512       1.30545292      -3.00466577       0.00000000
Si      -2.67154373       2.23970398       0.90772783       0.00000000
H        0.38610558      -3.56686658      -0.51686775       0.00000000
Si      -2.32787360      -2.80843675       0.51590497       0.00000000
Si      -3.34820428      -1.26929238      -0.97865273       0.00000000
