10
Lattice="16.290000149 0.0 0.0 0.0 16.290000149 0.0 0.0 0.0 29.1751946751" Properties=species:S:1:pos:R:3:initial_magmoms:R:1 pbc="T T T"
Si      -1.35345466       1.35863488      -1.30363522       0.00000000
Si       1.38456856       1.35433432       1.29269453       0.00000000
Si       1.36081774      -1.34527708      -1.33558206       0.00000000
Si      -1.34586352      -1.30719106       1.39390328       0.00000000
H       -0.43691409      -2.20275011       2.20374833       0.00000000
Si       2.60503166      -0.17949951       2.53491596       0.00000000
Si      -2.66517434      -0.07016103      -2.62731381       0.00000000
Si      -2.55249641       2.76025908       0.17222117       0.00000000
Si       2.60328863      -2.73132804       0.03728590       0.00000000
Si       0.01832625       2.61167798      -2.73677914       0.00000000
