10
Lattice="16.290000149 0.0 0.0 0.0 16.290000149 0.0 0.0 0.0 29.1751946751" Properties=species:S:1:pos:R:3:initial_magmoms:R:1 pbc="T T T"
Si       1.33359715       1.33988835      -1.32876090       0.00000000
Si      -1.32991561       1.41977451       1.28624681       0.00000000
Si       1.43410645      -1.34616977       1.26197305       0.00000000
Si      -1.36086661      -1.28246664      -1.41002841       0.00000000
Si       0.05492988      -2.69002963       2.59740923       0.00000000
Si      -2.67871133       0.04599644       2.62308340       0.00000000
Si       0.05576067       2.76954763       2.61161755       0.00000000
Si       2.78091480       0.04133913       2.60184386       0.00000000
Si      -2.71050941      -2.67769810      -0.09931236       0.00000000
Si      -0.04031775      -2.77112125      -2.61868378       0.00000000
