10
Lattice="16.290000149 0.0 0.0 0.0 16.290000149 0.0 0.0 0.0 29.1751946751" Properties=species:S:1:pos:R:3:initial_magmoms:R:1 pbc="T T T"
Si       1.39136475      -1.34811154       1.32887177       0.00000000
Si       1.37533539       1.34833960      -1.35095739       0.00000000
Si      -1.31413606      -1.36616086      -1.39474936       0.00000000
Si      -1.36923641       1.33911946       1.38162052       0.00000000
Si      -2.66109859      -2.71976213      -0.03655652       0.00000000
Si       0.03405913      -2.70174539       2.68041266       0.00000000
Si      -2.70159553       2.70522820       0.00881091       0.00000000
Si       0.02944906       2.70853344      -2.70719549       0.00000000
Si      -2.68274800      -0.00954594      -2.73561213       0.00000000
Si       2.70846013      -2.71199180      -0.06202646       0.00000000
