10
Lattice="16.290000149 0.0 0.0 0.0 16.290000149 0.0 0.0 0.0 29.1751946751" Properties=species:S:1:pos:R:3:initial_magmoms:R:1 pbc="T T T"
H        0.72104428       0.07876215       1.32385363       0.00000000
H       -1.39219228       0.83613313       1.62867607       0.00000000
Si       1.60663384      -0.78898987      -1.52489990       0.00000000
Si      -1.87172102      -1.46362393      -0.16020099       0.00000000
Si      -0.33917409       1.94914739      -1.37485187       0.00000000
H        1.87198166       1.71414785       0.19774947       0.00000000
H        2.51669099       1.28339137       0.24766823       0.00000000
Si      -0.79322527       0.92698246       3.02969809       0.00000000
Si       0.12325014      -1.80444332      -2.99480456       0.00000000
Si      -0.99417871      -3.24596172      -1.44236327       0.00000000
