10
Lattice="16.290000149 0.0 0.0 0.0 16.290000149 0.0 0.0 0.0 29.1751946751" Properties=species:S:1:pos:R:3:initial_magmoms:R:1 pbc="T T T"
Si       1.36080145      -1.35302298       1.35218275       0.00000000
Si      -1.36233271       1.36282956       1.34573503       0.00000000
Si       1.34943103       1.38778584      -1.33558206       0.00000000
Si      -1.34680834      -1.38750891      -1.33987082       0.00000000
Si      -2.78091480      -0.04133913      -2.60184386       0.00000000
Si       0.00317655      -2.71734307       2.69514613       0.00000000
Si       2.79207345       0.05606204      -2.61847372       0.00000000
Si      -0.00255753       2.70693376       2.70906270       0.00000000
Si      -2.72650619       0.01445249       2.69520448       0.00000000
Si      -0.02772558       2.72760577      -2.69470851       0.00000000
