10
Lattice="16.290000149 0.0 0.0 0.0 16.290000149 0.0 0.0 0.0 29.1751946751" Properties=species:S:1:pos:R:3:initial_magmoms:R:1 pbc="T T T"
Si       1.37627695      -1.34616815       1.33561124       0.00000000
Si       1.36417348       1.34837707      -1.34946945       0.00000000
Si      -1.35078310      -1.36897415      -1.35145337       0.00000000
Si      -1.34983828       1.35041332       1.37263456       0.00000000
Si       0.02430468      -2.70226179       2.67058062       0.00000000
Si       0.00135207       2.71375601      -2.68543079       0.00000000
Si      -2.73311993      -0.00979518      -2.67396494       0.00000000
Si      -2.71922456       2.69448494       0.00886926       0.00000000
Si       2.72394866       2.69248127       0.01385822       0.00000000
Si       2.72650619      -0.01445249      -2.69520448       0.00000000
