10
Lattice="16.290000149 0.0 0.0 0.0 16.290000149 0.0 0.0 0.0 29.1751946751" Properties=species:S:1:pos:R:3:initial_magmoms:R:1 pbc="T T T"
H       -0.88677874       0.84701485      -0.89019354       0.00000000
Si       1.03045654      -1.48926439      -1.46952538       0.00000000
Si      -1.39359322      -1.23268060       1.42780485       0.00000000
Si       1.89970724       1.30093570       0.62764596       0.00000000
Si       1.94517263       0.34516881      -2.64210563       0.00000000
Si       0.01466100       1.83901070      -2.95075001       0.00000000
H       -2.78686065       0.42655365      -2.13422384       0.00000000
Si       2.14749443       0.78659524       2.92757674       0.00000000
Si       0.00491958      -2.65786013       2.65176262       0.00000000
Si       2.53488692      -2.79902928      -0.17615983       0.00000000
