10
Lattice="16.290000149 0.0 0.0 0.0 16.290000149 0.0 0.0 0.0 29.1751946751" Properties=species:S:1:pos:R:3:initial_magmoms:R:1 pbc="T T T"
Si      -1.35013150      -1.34762773      -1.38086196       0.00000000
Si       1.30945537       1.34641250      -1.42272837       0.00000000
Si       1.43791831      -1.35666868       1.29126494       0.00000000
Si      -1.41711598       1.35664262       1.33677824       0.00000000
Si       0.10406052      -2.64890552       2.66643774       0.00000000
Si      -2.68067265      -2.70432410      -0.00487226       0.00000000
Si       2.60253929       2.78436339      -0.10975708       0.00000000
Si      -0.10414197       2.82244941       2.61972826       0.00000000
Si       0.00649971      -2.70486167      -2.74599850       0.00000000
Si       2.68420106      -0.03922958       2.76802577       0.00000000
