10
Lattice="16.290000149 0.0 0.0 0.0 16.290000149 0.0 0.0 0.0 29.1751946751" Properties=species:S:1:pos:R:3:initial_magmoms:R:1 pbc="T T T"
Si       2.24577200      -0.50852493       0.27135849       0.00000000
Si      -1.57379320      -1.68663241      -0.44378389       0.00000000
Si      -0.73029700       0.63337150       2.17953058       0.00000000
Si      -0.07317468       1.46266282      -1.93002665       0.00000000
H        0.26858952      -1.11839485      -2.83559552       0.00000000
Si      -2.82844902      -0.58008691      -2.04564795       0.00000000
Si      -1.30280905       3.31380957      -1.26480304       0.00000000
Si       3.17619491      -1.32449919      -1.72553771       0.00000000
Si       1.31556412      -2.23228714      -2.85666001       0.00000000
H       -0.00493587       3.86384143      -0.34485080       0.00000000
