10
Lattice="16.290000149 0.0 0.0 0.0 16.290000149 0.0 0.0 0.0 29.1751946751" Properties=species:S:1:pos:R:3:initial_magmoms:R:1 pbc="T T T"
Si      -1.34718301      -1.33266862      -1.38857005       0.00000000
Si      -1.34330599       1.30344436       1.42369115       0.00000000
Si       1.30248325       1.35410626      -1.43436927       0.00000000
Si       1.34776945      -1.38486178       1.36265664       0.00000000
Si       2.69312310       2.64054386       0.00084608       0.00000000
Si      -2.69044013       2.64826532       0.05902142       0.00000000
Si       2.66272270      -0.10420713      -2.72125210       0.00000000
Si      -2.68855049      -2.75110410      -0.02867922       0.00000000
Si       0.01361844       2.65114865       2.79224118       0.00000000
Si       2.71227036      -0.05492988       2.74170974       0.00000000
