10
Lattice="16.290000149 0.0 0.0 0.0 16.290000149 0.0 0.0 0.0 29.1751946751" Properties=species:S:1:pos:R:3:initial_magmoms:R:1 pbc="T T T"
Si       1.40817277      -1.18091098      -1.46975878       0.00000000
Si      -1.31594042      -1.42702030       1.34736884       0.00000000
Si      -1.84105998       1.17104739      -0.93681550       0.00000000
Si       1.44594928       1.44115514       1.27720250       0.00000000
H        0.80339023       2.59501331      -1.44945285       0.00000000
Si      -0.47773683       2.55687842      -2.26968427       0.00000000
Si      -2.77148289       1.98702164       1.06008070       0.00000000
Si      -2.48643232       0.16470705       2.63431585       0.00000000
Si      -0.13406670      -2.49126230      -2.66150713       0.00000000
Si       2.79705819      -2.49587237      -0.03874466       0.00000000
