10
Lattice="16.290000149 0.0 0.0 0.0 16.290000149 0.0 0.0 0.0 29.1751946751" Properties=species:S:1:pos:R:3:initial_magmoms:R:1 pbc="T T T"
Si      -1.34609158      -1.33028377       1.34662779       0.00000000
Si       1.31512429      -1.32318458      -1.40087615       0.00000000
Si      -1.20311425       1.39716073      -1.44133631       0.00000000
Si       1.42873075       1.40390479       1.24238482       0.00000000
Si       2.30405762       0.46424871      -2.55275951       0.00000000
Si       0.67108285       2.19962243      -2.63673448       0.00000000
Si      -2.64754856      -2.65720853      -0.07906186       0.00000000
Si      -2.70225038       0.06488307       2.63576294       0.00000000
Si       2.69824304      -2.64714837      -0.03483810       0.00000000
Si       0.05075964       2.75266794       2.59272953       0.00000000
