10
Lattice="16.290000149 0.0 0.0 0.0 16.290000149 0.0 0.0 0.0 29.1751946751" Properties=species:S:1:pos:R:3:initial_magmoms:R:1 pbc="T T T"
Si      -1.41088506       1.31053051       1.31282541       0.00000000
Si       1.36680432      -1.23028597       1.45429593       0.00000000
Si       1.33132470       1.40348125      -1.33838288       0.00000000
Si      -1.39449732      -1.37064061      -1.30964531       0.00000000
Si       2.56584607      -2.63191016      -0.02156047       0.00000000
Si      -0.06340557       2.71847522       2.57818278       0.00000000
Si       2.62932820       0.04678488      -2.75548044       0.00000000
Si      -0.00115496      -2.65549808       2.75524703       0.00000000
Si      -2.73491998       0.00192222      -2.67796194       0.00000000
Si      -0.07372365      -2.70542693      -2.71545207       0.00000000
