10
Lattice="16.290000149 0.0 0.0 0.0 16.290000149 0.0 0.0 0.0 29.1751946751" Properties=species:S:1:pos:R:3:initial_magmoms:R:1 pbc="T T T"
Si      -1.43529562       1.32222673       1.28026589       0.00000000
Si      -1.37826433      -1.33954300      -1.33289794       0.00000000
Si       1.34817670       1.35697330      -1.35498357       0.00000000
Si       1.35865117      -1.33042060       1.38016176       0.00000000
Si      -0.01001835       2.71269227       2.45967314       0.00000000
Si      -0.00107514      -2.70588305      -2.64551913       0.00000000
Si       2.72634329       0.01037673      -2.67682411       0.00000000
Si      -2.72844470       0.03538188      -2.67772854       0.00000000
Si      -0.01114236       2.75154393      -2.66264497       0.00000000
Si       0.01743030      -2.66838347       2.74935365       0.00000000
