10
Lattice="16.290000149 0.0 0.0 0.0 16.290000149 0.0 0.0 0.0 29.1751946751" Properties=species:S:1:pos:R:3:initial_magmoms:R:1 pbc="T T T"
Si      -1.34914596       1.33548679      -1.37458930       0.00000000
Si       1.31297401       1.46580679       1.28295001       0.00000000
Si      -1.41255804      -1.29404992       1.38623020       0.00000000
Si       1.41711598      -1.35664262      -1.33677824       0.00000000
H        2.22192344       0.57024775       2.09279506       0.00000000
H        0.21045051       0.22371057       3.50504954       0.00000000
Si      -0.02168199      -2.74377360       2.52563825       0.00000000
Si      -2.64627671      -2.66708663      -0.03926981       0.00000000
Si      -2.62012907       2.69667920       0.04936443       0.00000000
Si       0.06698448      -2.70427034      -2.71764021       0.00000000
