10
Lattice="16.290000149 0.0 0.0 0.0 16.290000149 0.0 0.0 0.0 29.1751946751" Properties=species:S:1:pos:R:3:initial_magmoms:R:1 pbc="T T T"
Si       0.08237853      -0.69263452      -2.22953337       0.00000000
Si      -0.98893333      -1.78743330       1.15188337       0.00000000
Si       1.83912473       0.88135417       1.18602126       0.00000000
Si      -1.63297477       1.73537372      -0.08397496       0.00000000
H        2.53403984      -0.94714948      -0.73614268       0.00000000
Si      -2.30405762      -0.46424871       2.55275951       0.00000000
Si       0.55190521       2.33043113       2.51405862       0.00000000
Si      -2.12136527      -0.31094352      -3.03436029       0.00000000
Si      -2.07181109       1.98311204      -2.36721111       0.00000000
Si       2.02132838       0.33552513      -3.13031750       0.00000000
