10
Lattice="16.290000149 0.0 0.0 0.0 16.290000149 0.0 0.0 0.0 29.1751946751" Properties=species:S:1:pos:R:3:initial_magmoms:R:1 pbc="T T T"
H       -1.19180899       0.49449924      -0.79992549       0.00000000
Si       1.35922132      -1.04083327      -1.61207538       0.00000000
H       -1.72796177       0.65862100       1.51734352       0.00000000
Si       1.27019647       1.66043972       1.19901298       0.00000000
Si      -0.67491100      -1.84764440       1.43136423       0.00000000
H       -0.54218007       2.18716058      -1.90292290       0.00000000
H        1.55219266      -1.05295303       2.56286580       0.00000000
Si      -3.04551327       1.12469419       0.92750861       0.00000000
H       -2.00704205       1.29394729      -2.42524641       0.00000000
Si       2.57856041       0.05732451       2.34151360       0.00000000
