10
Lattice="16.290000149 0.0 0.0 0.0 16.290000149 0.0 0.0 0.0 29.1751946751" Properties=species:S:1:pos:R:3:initial_magmoms:R:1 pbc="T T T"
Si      -1.34937711      -1.40333464       1.30912016       0.00000000
Si       1.33594145      -1.36283770      -1.37654404       0.00000000
Si      -1.44346815       1.35153244      -1.28277496       0.00000000
Si       1.37068802       1.35454609       1.36840416       0.00000000
Si      -2.59318378      -0.04660569       2.73514533       0.00000000
Si      -0.06735410       2.67802715      -2.67533618       0.00000000
Si       2.70122916       2.71124246      -0.00758555       0.00000000
Si       2.70510618      -2.70746318      -0.02135624       0.00000000
H        0.19389026      -0.13882338       3.81990824       0.00000000
Si      -0.01203202       2.74842618       2.67078485       0.00000000
