10
Lattice="16.290000149 0.0 0.0 0.0 16.290000149 0.0 0.0 0.0 29.1751946751" Properties=species:S:1:pos:R:3:initial_magmoms:R:1 pbc="T T T"
Si       1.46585892      -1.20819673      -1.33867463       0.00000000
Si      -1.15136092      -1.63872515       1.18232476       0.00000000
Si      -1.76725325       1.15427683      -1.03531096       0.00000000
Si       1.45883304       1.38517129       1.34909018       0.00000000
H       -2.05188842      -0.89546131       2.15986884       0.00000000
Si      -3.37937682       1.33198444       0.64579293       0.00000000
Si       2.64070676       0.32092929      -2.65978580       0.00000000
Si       2.90344818      -2.39503727       0.10692709       0.00000000
Si      -0.92691730       3.07545103      -2.06621646       0.00000000
Si       0.25119115      -2.80896618       2.64298089       0.00000000
