10
Lattice="16.290000149 0.0 0.0 0.0 16.290000149 0.0 0.0 0.0 29.1751946751" Properties=species:S:1:pos:R:3:initial_magmoms:R:1 pbc="T T T"
Si      -1.44231661       1.43622415       1.11688480       0.00000000
Si      -1.36024759      -1.31062825      -1.39086906       0.00000000
Si       1.35021295       1.38997684      -1.34628936       0.00000000
Si       1.32972013      -1.32023935       1.43894978       0.00000000
H       -0.62850079       2.37609200       1.94872795       0.00000000
Si      -2.70146846      -2.64859112      -0.02167717       0.00000000
Si       2.71292033      -2.67167405       0.08218652       0.00000000
Si       0.00871515      -2.67115277      -2.71533537       0.00000000
Si       2.72834697       0.04230513      -2.68545997       0.00000000
Si      -2.72891711       2.73248462      -0.31135768       0.00000000
