10
Lattice="16.290000149 0.0 0.0 0.0 16.290000149 0.0 0.0 0.0 29.1751946751" Properties=species:S:1:pos:R:3:initial_magmoms:R:1 pbc="T T T"
Si      -1.37718919       1.36634005       1.31262118       0.00000000
Si      -1.37872045      -1.33516099      -1.34456802       0.00000000
Si       1.35591445       1.35532801      -1.35813449       0.00000000
Si       1.35487189      -1.35031069       1.36971704       0.00000000
Si       0.00107514       2.70588305       2.64551913       0.00000000
Si      -0.00780291      -2.68112225      -2.68277585       0.00000000
Si      -2.73123029       0.01386279       2.67308969       0.00000000
Si       2.71479368      -2.70239699       0.01651316       0.00000000
Si       0.00063531       2.72552879      -2.69780108       0.00000000
Si      -2.72837955      -2.70039332       0.01152420       0.00000000
