10
Lattice="16.290000149 0.0 0.0 0.0 16.290000149 0.0 0.0 0.0 29.1751946751" Properties=species:S:1:pos:R:3:initial_magmoms:R:1 pbc="T T T"
Si       0.44895240      -0.42080328       2.21544758       0.00000000
Si       1.82369810       1.29458260      -0.63762388       0.00000000
Si      -1.64550178       1.65056798      -0.11833459       0.00000000
Si      -0.66772711      -1.87880717      -1.26827489       0.00000000
H        1.79781329       0.16946487       2.50197717       0.00000000
Si       0.80158204       2.12411828      -2.59399573       0.00000000
Si      -2.04346323      -0.67831561      -2.73850047       0.00000000
Si       3.63643302      -0.17127306      -0.80249290       0.00000000
Si      -0.74127646       3.38589282      -1.39801698       0.00000000
Si      -1.93649657       2.46703907       2.04019219       0.00000000
