10
Lattice="16.290000149 0.0 0.0 0.0 16.290000149 0.0 0.0 0.0 29.1751946751" Properties=species:S:1:pos:R:3:initial_magmoms:R:1 pbc="T T T"
Si       2.30027834       0.06020784      -0.45265315       0.00000000
Si      -0.86092651       2.07782210      -0.79301097       0.00000000
Si      -0.14472036       0.41614434       2.35869779       0.00000000
Si      -0.91973341      -2.08157694      -0.81521329       0.00000000
H       -2.31015008       0.19626192       0.91274597       0.00000000
H       -1.01514394       2.87228541       0.48363720       0.00000000
Si      -3.59127714       0.15812703       0.09251454       0.00000000
Si      -2.98770006      -1.36222520      -1.66616619       0.00000000
Si       3.06936183       2.10535220       0.42899206       0.00000000
Si       2.05902344       0.03445335       3.16352471       0.00000000
