10
Lattice="16.290000149 0.0 0.0 0.0 16.290000149 0.0 0.0 0.0 29.1751946751" Properties=species:S:1:pos:R:3:initial_magmoms:R:1 pbc="T T T"
Si      -1.36896274       1.36052452       1.32446631       0.00000000
Si      -1.37381716      -1.36524862      -1.33149753       0.00000000
Si       1.35451351       1.37350765      -1.34305091       0.00000000
Si       1.36026388      -1.32631552       1.38926442       0.00000000
Si       2.68325624      -2.70026300       0.01838037       0.00000000
Si      -0.00871515       2.67115277       2.71533537       0.00000000
Si      -0.01389537      -2.71733492      -2.68470141       0.00000000
Si      -2.71018361       0.02256165       2.69365820       0.00000000
Si       2.70080057       0.02435355      -2.70964621       0.00000000
Si      -2.72761391       2.69094512      -0.05569545       0.00000000
