10
Lattice="16.290000149 0.0 0.0 0.0 16.290000149 0.0 0.0 0.0 29.1751946751" Properties=species:S:1:pos:R:3:initial_magmoms:R:1 pbc="T T T"
Si      -1.39215970       1.35128809       1.31539283       0.00000000
Si       1.33763707       1.34967538      -1.37240116       0.00000000
Si      -1.40181967      -1.37000530      -1.31279623       0.00000000
Si       1.35047359      -1.30740283       1.43013887       0.00000000
Si       2.58349628      -2.74654941       0.01829285       0.00000000
Si       2.68157837       2.67546962       0.03585631       0.00000000
Si      -0.05510907       2.64062531       2.74617355       0.00000000
Si      -2.89820280      -0.00438201       2.47767423       0.00000000
Si       2.66062943      -0.02427210      -2.74328520       0.00000000
Si      -0.02585223      -2.29410443       3.06266606       0.00000000
