10
Lattice="16.290000149 0.0 0.0 0.0 16.290000149 0.0 0.0 0.0 29.1751946751" Properties=species:S:1:pos:R:3:initial_magmoms:R:1 pbc="T T T"
Si       1.34588633      -1.36019384       1.35623810       0.00000000
Si      -1.31423421      -1.38365144      -1.36359025       0.00000000
Si      -1.38029407       1.34739967       1.34106700       0.00000000
Si       1.32428579       1.38403588      -1.36169386       0.00000000
Si      -2.63136608       0.05187225      -2.63889636       0.00000000
Si       2.68044459      -0.01113096      -2.65082901       0.00000000
Si      -0.00941888       2.71561307       2.66556249       0.00000000
Si       2.66399169      -2.73080187      -0.03253034       0.00000000
Si       2.70300624       0.00259988       2.70602848       0.00000000
Si      -0.02944906      -2.70853344       2.70719549       0.00000000
