10
Lattice="16.290000149 0.0 0.0 0.0 16.290000149 0.0 0.0 0.0 29.1751946751" Properties=species:S:1:pos:R:3:initial_magmoms:R:1 pbc="T T T"
Si       1.31268079      -1.43883055       1.28548825       0.00000000
Si      -1.35552349      -1.36133902      -1.34138793       0.00000000
Si       1.38714238       1.36236529      -1.30844913       0.00000000
Si      -1.28537875       1.37217187       1.40726552       0.00000000
Si       2.73795807      -0.04836501       2.46489550       0.00000000
Si       0.01084914       2.70339068      -2.65631395       0.00000000
Si      -2.72329706      -0.00260640      -2.66725465       0.00000000
Si       2.73683406      -0.00951336      -2.65742261       0.00000000
Si       0.01953171      -2.72567540      -2.67250618       0.00000000
Si      -2.67577913       2.72448623       0.07900643       0.00000000
