10
Lattice="16.290000149 0.0 0.0 0.0 16.290000149 0.0 0.0 0.0 29.1751946751" Properties=species:S:1:pos:R:3:initial_magmoms:R:1 pbc="T T T"
Si       1.31416318       1.35682669      -1.38728051       0.00000000
Si      -1.38733786       1.47750301       1.21578871       0.00000000
Si       1.59744628      -1.30479643       1.21351305       0.00000000
Si      -1.50294799      -1.34543998      -1.29960905       0.00000000
Si      -1.69200974      -2.39586806       2.11426801       0.00000000
Si      -2.23347305      -0.01290168       2.84796580       0.00000000
Si       2.37195434      -0.11178198      -2.86331196       0.00000000
Si       3.46916730       0.15882750       1.37371404       0.00000000
Si       3.12999321       2.10797489      -0.00113783       0.00000000
H        2.07697502       0.99496063       3.00239011       0.00000000
