10
Lattice="16.290000149 0.0 0.0 0.0 16.290000149 0.0 0.0 0.0 29.1751946751" Properties=species:S:1:pos:R:3:initial_magmoms:R:1 pbc="T T T"
Si       0.60691654      -1.31159262       0.43278484       0.00000000
Si      -1.51944651       1.46587195       0.62901720       0.00000000
H        2.01147293       0.34653717      -1.41225447       0.00000000
Si       1.10252350       1.24209622      -2.22209953       0.00000000
Si      -0.04194675       2.66996360      -0.75960537       0.00000000
Si      -2.83597760      -0.23454342      -0.50718158       0.00000000
Si      -1.62300855      -1.51776049      -2.11881934       0.00000000
Si      -0.23100849       1.61953552       2.65427169       0.00000000
Si      -0.23213250      -2.96748417      -0.97941129       0.00000000
Si       2.91516069      -1.22319982       0.07915230       0.00000000
