10
Lattice="16.290000149 0.0 0.0 0.0 16.290000149 0.0 0.0 0.0 29.1751946751" Properties=species:S:1:pos:R:3:initial_magmoms:R:1 pbc="T T T"
Si       2.06796665      -0.71935175       0.85095290       0.00000000
Si       0.75403153       0.58610117      -2.15371287       0.00000000
Si      -1.28023763      -1.98864412      -0.12769983       0.00000000
Si      -0.60357709       1.52035223       1.75868073       0.00000000
H        0.67754998       1.55848712       2.57891216       0.00000000
H        0.14711499       1.89769379      -2.58649771       0.00000000
Si      -0.08389350       3.51722932       0.06777398       0.00000000
Si       1.28233252      -2.21743717       2.55860622       0.00000000
Si       3.12306996      -1.38940018      -1.21683902       0.00000000
Si      -1.96690023       0.13452119       3.09154950       0.00000000
