10
Lattice="10.86 0.0 0.0 0.0 10.86 0.0 0.0 0.0 10.86" Properties=species:S:1:pos:R:3:initial_magmoms:R:1 pbc="T T T"
Si       1.39872456       1.19195016      -1.35012606       0.00000000
Si      -1.70641008       1.32993732       1.06572438       0.00000000
Si      -1.47882792      -1.22248848      -1.63088964       0.00000000
Si      -0.04453686      -2.42886072       2.50287162       0.00000000
Si       2.50633596       2.70226122      -0.11317206       0.00000000
Si      -0.20866404       2.70226122       2.60182794       0.00000000
Si       2.50633596      -0.01273878      -2.82817206       0.00000000
Si      -2.92366404      -0.01273878       2.60182794       0.00000000
Si      -0.20866404       2.70226122      -2.82817206       0.00000000
Si      -0.20866404      -2.72773878      -2.82817206       0.00000000
