10
Lattice="10.86 0.0 0.0 0.0 10.86 0.0 0.0 0.0 10.86" Properties=species:S:1:pos:R:3:initial_magmoms:R:1 pbc="T T T"
Si       1.10761140      -1.20468894      -1.47804600       0.00000000
Si       1.10761140       1.51031106       1.23695400       0.00000000
Si      -1.39872456      -1.19195016       1.35012606       0.00000000
Si      -1.60738860       1.51031106      -1.47804600       0.00000000
Si       2.14752156      -0.03621810       2.76932172       0.00000000
Si       2.46511140       0.15281106      -2.83554600       0.00000000
Si      -2.87755248      -2.41443864      -0.28076358       0.00000000
Si       2.70723510      -2.61467532      -0.32351940       0.00000000
Si       2.46511140       2.86781106      -0.12054600       0.00000000
Si      -0.24988860      -2.56218894      -2.83554600       0.00000000
