10
Lattice="10.86 0.0 0.0 0.0 10.86 0.0 0.0 0.0 10.86" Properties=species:S:1:pos:R:3:initial_magmoms:R:1 pbc="T T T"
Si      -1.43028372       1.23234936      -1.11935106       0.00000000
Si       1.28471628       1.23234936       1.59564894       0.00000000
Si      -1.43028372      -1.48265064       1.59564894       0.00000000
Si       2.32462644      -0.31417980      -2.30198334       0.00000000
Si      -0.07278372       2.58984936      -2.47685106       0.00000000
Si       2.64221628       2.58984936       0.23814894       0.00000000
Si      -2.43517038      -2.85712482       0.39065592       0.00000000
Si      -2.78778372       2.58984936       0.23814894       0.00000000
Si       2.61029874      -2.83435140       0.19059300       0.00000000
Si      -0.07278372       2.58984936       2.95314894       0.00000000
