10
Lattice="10.86 0.0 0.0 0.0 10.86 0.0 0.0 0.0 10.86" Properties=species:S:1:pos:R:3:initial_magmoms:R:1 pbc="T T T"
Si      -1.25265756      -1.38424818       1.23239280       0.00000000
Si      -1.25265756       1.33075182      -1.48260720       0.00000000
Si       1.46234244      -1.38424818      -1.48260720       0.00000000
Si      -2.18364192       0.07865898       2.66348016       0.00000000
Si       0.10484244      -2.74174818       2.58989280       0.00000000
Si      -2.61015756      -2.74174818      -0.12510720       0.00000000
Si      -2.52282144       2.83600212      -0.28532478       0.00000000
Si      -2.61015756      -0.02674818      -2.84010720       0.00000000
Si       3.00805710       0.16443126       2.47616688       0.00000000
Si       0.10484244       2.68825182      -2.84010720       0.00000000
