10
Lattice="16.28999089631971 0.0 0.0 0.0 16.28999089631971 0.0 0.0 0.0 34.45770212530097" Properties=species:S:1:pos:R:3:initial_magmoms:R:1 pbc="T T T"
Si      -1.42325308       1.26144384       1.40274627       0.00000000
Si      -1.84024450      -0.89335012      -1.19388665       0.00000000
Si       1.26395250      -1.45834853       1.38363257       0.00000000
Si       1.87560942       0.88434663      -1.34674355       0.00000000
Si      -0.47284657      -0.66325061      -3.14657372       0.00000000
Si      -2.84203063       2.45152608       0.01625026       0.00000000
Si       2.66647263       2.67263025      -0.00536507       0.00000000
Si       2.62509603      -0.09018959       2.74833063       0.00000000
Si      -0.08812564       2.62292946       2.75580795       0.00000000
Si       2.63542389      -2.77556743      -0.05874697       0.00000000
