10
Lattice="16.28999089631971 0.0 0.0 0.0 16.28999089631971 0.0 0.0 0.0 34.45770212530097" Properties=species:S:1:pos:R:3:initial_magmoms:R:1 pbc="T T T"
Si       1.34112312       1.34578206       1.37487342       0.00000000
Si      -1.33371117       1.39551543      -1.38237142       0.00000000
Si      -1.37508777      -1.36730441       1.37132428       0.00000000
Si       1.31922936      -1.42813453      -1.43375477       0.00000000
Si      -2.12457438      -0.39276819      -2.72374991       0.00000000
Si       2.69180847       2.69568549      -0.02406872       0.00000000
Si      -0.66358944      -2.34499926      -2.93304611       0.00000000
Si       2.68017741      -2.73811183       0.01162948       0.00000000
Si       2.69891091      -0.01073511       2.73140500       0.00000000
Si      -0.01480761       2.70334179       2.73288668       0.00000000
