10
Lattice="16.28999089631971 0.0 0.0 0.0 16.28999089631971 0.0 0.0 0.0 34.45770212530097" Properties=species:S:1:pos:R:3:initial_magmoms:R:1 pbc="T T T"
Si      -1.35689184      -1.35693119      -1.35618700       0.00000000
Si       1.35817875       1.35763955      -1.35594579       0.00000000
Si      -1.35855342       1.35695537       1.36245830       0.00000000
Si       1.36168110      -1.35693324       1.35997735       0.00000000
Si      -2.70707872       0.00405132       2.71857639       0.00000000
Si       0.00037467      -2.71426491      -2.71302869       0.00000000
Si       0.01702305       2.70034280       2.72701853       0.00000000
Si      -2.71420070       0.00016779      -2.71330435       0.00000000
Si      -2.71362241      -2.71460700       0.00192963       0.00000000
Si       0.00039096       2.71549250      -2.71358002       0.00000000
