10
Lattice="16.28999089631971 0.0 0.0 0.0 16.28999089631971 0.0 0.0 0.0 34.45770212530097" Properties=species:S:1:pos:R:3:initial_magmoms:R:1 pbc="T T T"
Si      -1.68899607      -0.76975137      -1.39791530       0.00000000
Si       1.80530667      -1.63209510       0.02449944       0.00000000
Si       0.89308296       1.81294668      -1.37386381       0.00000000
Si      -0.32953041      -2.03234854      -2.75131122       0.00000000
Si      -1.39761684       2.30809752       2.13786041       0.00000000
Si       1.06385103       2.82193299       2.03459062       0.00000000
Si       2.60869689       2.63704149       0.00303228       0.00000000
Si       2.39458113       0.69484995      -2.74707292       0.00000000
Si       0.96891291      -3.42672272      -1.29881489       0.00000000
Si       1.40036985      -2.94377893       1.99424062       0.00000000
