10
Lattice="16.28999089631971 0.0 0.0 0.0 16.28999089631971 0.0 0.0 0.0 34.45770212530097" Properties=species:S:1:pos:R:3:initial_magmoms:R:1 pbc="T T T"
Si       0.71447940       2.17709334       0.37245351       0.00000000
Si       0.28497726      -1.22028064      -1.98655655       0.00000000
Si      -2.21923557       0.50008671       0.63884615       0.00000000
Si       1.40743971      -1.45037689       1.24540542       0.00000000
Si      -0.08133597      -3.26289419       1.04637763       0.00000000
Si      -1.62002421       1.56278115       2.77036634       0.00000000
Si       0.63127008       2.36608992       2.69445598       0.00000000
Si       0.00120546      -3.45461120      -1.25874056       0.00000000
Si       2.44894086      -0.71609211      -2.76674828       0.00000000
Si      -1.01913498       3.62367792      -0.22449205       0.00000000
