10
Lattice="16.28999089631971 0.0 0.0 0.0 16.28999089631971 0.0 0.0 0.0 34.45770212530097" Properties=species:S:1:pos:R:3:initial_magmoms:R:1 pbc="T T T"
Si      -0.73526544       1.81323990      -1.30856643       0.00000000
Si       2.21923557      -0.50008671      -0.63884615       0.00000000
Si      -1.37072205      -1.94518564      -0.35074515       0.00000000
Si       0.59921136       1.06269444       2.13152019       0.00000000
Si       2.93371497       1.67700663      -0.26639264       0.00000000
Si       1.20010059       3.12359121      -0.86333821       0.00000000
Si      -0.09741420      -3.25931039       1.17204494       0.00000000
Si      -2.66820426       2.55464667      -0.07794337       0.00000000
Si      -0.48622392      -0.19901493       3.74782852       0.00000000
Si      -3.64391987      -1.14155433      -0.08579973       0.00000000
