10
Lattice="16.28999089631971 0.0 0.0 0.0 16.28999089631971 0.0 0.0 0.0 34.45770212530097" Properties=species:S:1:pos:R:3:initial_magmoms:R:1 pbc="T T T"
Si      -1.35487188       1.35518139      -1.35977060       0.00000000
Si      -1.33752303      -1.37495745       1.36569733       0.00000000
Si       1.36086660      -1.36008468      -1.35870241       0.00000000
Si       1.36634004       1.35314514       1.38085873       0.00000000
Si       2.59343316      -0.26383284       2.72846575       0.00000000
Si      -2.71106325       2.71166598      -0.00509974       0.00000000
Si      -2.71142163      -0.00241092      -2.71730145       0.00000000
Si       0.00356751       2.71259451      -2.71792169       0.00000000
Si      -2.71309950      -2.71834488       0.00113710       0.00000000
Si       0.00363267      -2.71766070      -2.71726699       0.00000000
