10
Lattice="16.28999089631971 0.0 0.0 0.0 16.28999089631971 0.0 0.0 0.0 34.45770212530097" Properties=species:S:1:pos:R:3:initial_magmoms:R:1 pbc="T T T"
Si       1.49753807       1.52813232       0.85692907       0.00000000
Si       0.31527666       0.23527647      -2.29595243       0.00000000
Si      -2.03948424       0.76232313       0.91412889       0.00000000
Si       0.52182246      -2.16806868       0.84907271       0.00000000
Si      -2.51394678      -1.86367374      -1.60552307       0.00000000
Si      -1.98338148      -0.49751289       2.88597200       0.00000000
Si       0.00399920      -1.76059062       3.06863238       0.00000000
Si       3.43047689       0.78672555      -0.37369399       0.00000000
Si      -1.44436167      -3.26882633       0.03335507       0.00000000
Si       2.64275765      -0.09053982      -2.48922579       0.00000000
