10
Lattice="16.28999089631971 0.0 0.0 0.0 16.28999089631971 0.0 0.0 0.0 34.45770212530097" Properties=species:S:1:pos:R:3:initial_magmoms:R:1 pbc="T T T"
Si      -0.40547439      -1.00118340      -2.08655286       0.00000000
Si       2.33476425       0.25229952      -0.18903506       0.00000000
Si      -1.03821057       2.24067321       0.08163034       0.00000000
Si      -0.73042731      -1.68490728       1.76457991       0.00000000
Si       2.61281826       0.22467168      -2.53116084       0.00000000
Si       2.78060526       2.47280571       0.53126915       0.00000000
Si      -2.56958460       2.02654116       1.90299658       0.00000000
Si       0.56526300       0.26446815      -3.73656085       0.00000000
Si      -2.57458563      -1.59479100      -2.40842244       0.00000000
Si       0.68719365       3.81982581       1.14640839       0.00000000
