10
Lattice="16.28999089631971 0.0 0.0 0.0 16.28999089631971 0.0 0.0 0.0 34.45770212530097" Properties=species:S:1:pos:R:3:initial_magmoms:R:1 pbc="T T T"
Si      -1.19503440      -1.70482995      -1.09070025       0.00000000
Si       1.21626027      -1.47175263       1.47410821       0.00000000
Si      -1.49234319       1.24616871       1.44642488       0.00000000
Si       1.81003077       0.75119706      -1.47869940       0.00000000
Si       2.65170249       2.48417613      -0.11475455       0.00000000
Si      -1.73894121      -0.63882864      -3.20844255       0.00000000
Si       2.51458956      -2.75905359      -0.00790116       0.00000000
Si       0.49922334      -3.54160890      -1.17240984       0.00000000
Si       3.50814924      -0.98927541      -1.17050433       0.00000000
Si       2.57859297      -0.12875616       2.84145262       0.00000000
