10
Lattice="16.28999089631971 0.0 0.0 0.0 16.28999089631971 0.0 0.0 0.0 34.45770212530097" Properties=species:S:1:pos:R:3:initial_magmoms:R:1 pbc="T T T"
Si      -0.99355968      -1.76977818       1.16260317       0.00000000
Si       1.44215370      -1.51558902      -1.08345934       0.00000000
Si       1.83389562       0.96914097       1.29398013       0.00000000
Si      -1.69811847       1.74047247      -0.30819507       0.00000000
Si       0.42016797       2.22418773       2.64985012       0.00000000
Si       0.10309941       0.79671132      -3.40966565       0.00000000
Si      -2.29188897      -0.48247722       2.64461254       0.00000000
Si       2.37816081       0.08724924      -2.72836759       0.00000000
Si      -0.85644675       3.47345154       1.05574978       0.00000000
Si      -3.50814924       0.98927541       1.17050433       0.00000000
