10
Lattice="16.28999089631971 0.0 0.0 0.0 16.28999089631971 0.0 0.0 0.0 34.45770212530097" Properties=species:S:1:pos:R:3:initial_magmoms:R:1 pbc="T T T"
Si       1.35871632      -1.35656604       1.36132120       0.00000000
Si      -1.35816246       1.36060596       1.36045976       0.00000000
Si      -1.35540945      -1.33975476      -1.38830849       0.00000000
Si       1.36954917       1.35356868      -1.38994523       0.00000000
Si       0.13693374      -2.58592347      -2.83473336       0.00000000
Si      -2.71471710      -2.71536381      -0.00096482       0.00000000
Si       2.71552671      -2.71467963       0.00671926       0.00000000
Si       0.00016290      -2.71391400       2.71947229       0.00000000
Si      -2.71498751       0.00143352       2.71905879       0.00000000
Si      -2.71692765       2.71767699       0.00623685       0.00000000
