10
Lattice="16.28999089631971 0.0 0.0 0.0 16.28999089631971 0.0 0.0 0.0 34.45770212530097" Properties=species:S:1:pos:R:3:initial_magmoms:R:1 pbc="T T T"
Si      -1.34961021      -1.34688978      -1.37296791       0.00000000
Si       1.36834371       1.36897902      -1.37248550       0.00000000
Si      -1.43021313       1.30184793       1.37489754       0.00000000
Si       1.37433843      -1.36490652       1.48791887       0.00000000
Si       0.40936770       2.15922321       2.53050614       0.00000000
Si      -1.94044851      -1.14440508       2.80496189       0.00000000
Si       2.08959975       0.39946338       2.95054577       0.00000000
Si      -2.68251502      -2.71362078      -0.00868335       0.00000000
Si       0.00658116      -2.70337437      -2.72763877       0.00000000
Si       2.72779308      -2.70541062       0.01299056       0.00000000
