10
Lattice="16.28999089631971 0.0 0.0 0.0 16.28999089631971 0.0 0.0 0.0 34.45770212530097" Properties=species:S:1:pos:R:3:initial_magmoms:R:1 pbc="T T T"
Si      -1.42162830       1.24147719       1.32600203       0.00000000
Si      -1.37011932      -1.33527501      -1.35329255       0.00000000
Si       1.34104167       1.38017025      -1.34998461       0.00000000
Si       1.22474736      -1.32660873       1.60031995       0.00000000
Si       2.04503031       0.58828077       2.67185172       0.00000000
Si       0.21481623       2.28652956       2.59153077       0.00000000
Si      -2.32909533      -0.54503082       2.54969909       0.00000000
Si       2.68170867      -2.69400762       0.04610443       0.00000000
Si      -0.64886328      -2.30479065       2.96973872       0.00000000
Si      -0.01785384      -2.69382843      -2.70882485       0.00000000
