10
Lattice="16.28999089631971 0.0 0.0 0.0 16.28999089631971 0.0 0.0 0.0 34.45770212530097" Properties=species:S:1:pos:R:3:initial_magmoms:R:1 pbc="T T T"
Si       0.51393321       1.23662277      -1.89665636       0.00000000
Si      -0.44584101      -2.22050619      -0.72030421       0.00000000
Si       2.27506140      -0.70946208       0.68129807       0.00000000
Si      -2.09341161       1.34702010       0.61513924       0.00000000
Si      -0.10309941      -0.79671132       3.40966565       0.00000000
Si       1.33905429      -2.31230034       2.32620631       0.00000000
Si       2.03900301       2.84915358      -1.03448971       0.00000000
Si      -1.80121788       0.94376115       3.10147059       0.00000000
Si       1.18524411      -0.32376375      -3.55028241       0.00000000
Si      -2.78060526      -2.47280571      -0.53126915       0.00000000
