10
Lattice="16.28999089631971 0.0 0.0 0.0 16.28999089631971 0.0 0.0 0.0 34.45770212530097" Properties=species:S:1:pos:R:3:initial_magmoms:R:1 pbc="T T T"
Si       1.36006839      -1.35637056       1.35518772       0.00000000
Si      -1.35786924      -1.35664749      -1.35739302       0.00000000
Si      -1.35553977       1.35845568       1.35846121       0.00000000
Si       1.35707103       1.35816246      -1.35766868       0.00000000
Si       2.71233387      -2.71492398      -0.00034458       0.00000000
Si       2.71283886       2.71461447      -0.00055132       0.00000000
Si      -0.00021177      -2.71430496      -2.71454483       0.00000000
Si      -2.71431473      -2.71526607       0.00000000       0.00000000
Si       2.71500543       0.00052128      -2.71457929       0.00000000
Si      -2.71536218       0.00104256      -2.71495833       0.00000000
