10
Lattice="16.28999089631971 0.0 0.0 0.0 16.28999089631971 0.0 0.0 0.0 34.45770212530097" Properties=species:S:1:pos:R:3:initial_magmoms:R:1 pbc="T T T"
Si       1.36368477       1.32310542       1.35236219       0.00000000
Si       1.35252612      -1.35923760      -1.35901253       0.00000000
Si      -1.36168110       1.35693324      -1.35997735       0.00000000
Si      -1.37134107      -1.36125756       1.38085873       0.00000000
Si       0.00421911       2.58570260       2.70575811       0.00000000
Si       2.71091664      -2.71477737       0.00003446       0.00000000
Si       2.71204065      -0.00060618      -2.71609543       0.00000000
Si       2.71614573       2.71426328       0.00065470       0.00000000
Si      -0.00350235       2.71457279      -2.71592314       0.00000000
Si      -2.71585251      -2.71539639       0.00000000       0.00000000
