10
Lattice="16.28999089631971 0.0 0.0 0.0 16.28999089631971 0.0 0.0 0.0 34.45770212530097" Properties=species:S:1:pos:R:3:initial_magmoms:R:1 pbc="T T T"
Si      -0.09426371      -2.00096896       1.13083350       0.00000000
Si       0.51782326      -0.40747806      -2.21955967       0.00000000
Si       1.42031533       1.18052001       1.40391094       0.00000000
Si      -1.98738067       1.26307773      -0.18266038       0.00000000
Si      -0.00399920       1.76059062      -3.06863238       0.00000000
Si       1.49925667       3.22452405       0.21070897       0.00000000
Si      -1.44836086      -1.50823571      -3.03527730       0.00000000
Si       0.22113838       0.96029550       3.62267808       0.00000000
Si      -1.52922442      -1.84241692       2.97363244       0.00000000
Si      -1.04704042      -3.67012790      -0.19520299       0.00000000
