10
Lattice="16.28999089631971 0.0 0.0 0.0 16.28999089631971 0.0 0.0 0.0 34.45770212530097" Properties=species:S:1:pos:R:3:initial_magmoms:R:1 pbc="T T T"
Si       1.35597960       1.35667279       1.35739302       0.00000000
Si       1.35703845      -1.35696984      -1.35725519       0.00000000
Si      -1.35775521       1.35769906      -1.35742748       0.00000000
Si      -1.35951453      -1.35863142       1.35708290       0.00000000
Si       0.00000000      -2.71413861      -2.71385568       0.00000000
Si      -2.71204065       0.00060618       2.71609543       0.00000000
Si       2.71443528      -2.71461102      -0.00010337       0.00000000
Si       2.71454931       2.71517897       0.00013783       0.00000000
Si      -0.00112401      -2.71417119       2.71612989       0.00000000
Si      -2.71528236      -2.71508343      -0.00003446       0.00000000
