10
Lattice="16.28999089631971 0.0 0.0 0.0 16.28999089631971 0.0 0.0 0.0 34.45770212530097" Properties=species:S:1:pos:R:3:initial_magmoms:R:1 pbc="T T T"
Si       0.09426371       2.00096896      -1.13083350       0.00000000
Si      -0.95277671      -1.66915894      -1.32603649       0.00000000
Si      -1.43496071       0.15855204       1.84279894       0.00000000
Si       2.11204737      -0.63831145       0.99176214       0.00000000
Si       1.51457904       3.18148897       0.27307744       0.00000000
Si       0.09975182       0.64173298       3.54046196       0.00000000
Si      -1.30273478      -3.36976978       0.25919098       0.00000000
Si       0.61208698       1.59349090      -3.35039317       0.00000000
Si      -2.58070157      -2.02584478       1.87494799       0.00000000
Si       2.45021148      -2.85655333       0.38248071       0.00000000
