10
Lattice="16.28999089631971 0.0 0.0 0.0 16.28999089631971 0.0 0.0 0.0 34.45770212530097" Properties=species:S:1:pos:R:3:initial_magmoms:R:1 pbc="T T T"
Si      -1.47470112       1.64300940       0.99431201       0.00000000
Si       1.70504172       0.10321344       1.87525811       0.00000000
Si      -1.85590341      -1.65146391       0.77591897       0.00000000
Si       0.82979631       0.91671975      -2.58787825       0.00000000
Si       1.76133996      -2.23133252       2.13255392       0.00000000
Si      -0.54090945      -2.72030782       2.39891210       0.00000000
Si       0.06828768       3.13233894       1.96925878       0.00000000
Si      -2.61754236       2.65781124      -0.90499759       0.00000000
Si      -1.87608672      -1.79621685      -2.91508877       0.00000000
Si       0.86503158       1.57288095       3.51920154       0.00000000
