10
Lattice="16.28999089631971 0.0 0.0 0.0 16.28999089631971 0.0 0.0 0.0 34.45770212530097" Properties=species:S:1:pos:R:3:initial_magmoms:R:1 pbc="T T T"
Si       0.47073213      -0.86376911      -2.11839180       0.00000000
Si      -2.16396360      -0.50418853       0.78019173       0.00000000
Si       1.62929322      -1.28039889       1.12156437       0.00000000
Si       0.03435561       2.39080185      -0.03121870       0.00000000
Si       1.30754943      -0.47396244       3.33337105       0.00000000
Si       2.77298154      -0.37479380      -2.38474998       0.00000000
Si      -3.50006940      -0.49071344      -1.14695971       0.00000000
Si       3.56640228      -1.10645590      -0.24406404       0.00000000
Si      -2.44894086       0.71609211       2.76674828       0.00000000
Si      -1.71489717       2.99600793      -1.50959277       0.00000000
