10
Lattice="16.28999089631971 0.0 0.0 0.0 16.28999089631971 0.0 0.0 0.0 34.45770212530097" Properties=species:S:1:pos:R:3:initial_magmoms:R:1 pbc="T T T"
Si      -1.07403228      -1.57902719       1.44618854       0.00000000
Si       0.42352371      -1.72283531      -1.67364599       0.00000000
Si       1.69090200       1.14302923       1.41552461       0.00000000
Si      -1.90656531       1.96459257      -0.09265681       0.00000000
Si       2.11168899       1.19433784      -1.94134802       0.00000000
Si       0.48638682       2.86730292      -1.57475232       0.00000000
Si      -2.35625076      -0.13702009       2.80811964       0.00000000
Si       0.37884024       2.60016321       2.78649742       0.00000000
Si      -1.68133977      -3.45772031       0.10293587       0.00000000
Si       1.86369003      -0.79898054      -3.33020094       0.00000000
