10
Lattice="16.28999089631971 0.0 0.0 0.0 16.28999089631971 0.0 0.0 0.0 34.45770212530097" Properties=species:S:1:pos:R:3:initial_magmoms:R:1 pbc="T T T"
Si       1.33340166       1.38406356       1.44202118       0.00000000
Si      -1.15755111       1.57455882      -1.42999544       0.00000000
Si       1.57995081      -1.13989275      -1.43878216       0.00000000
Si      -0.90722268      -1.93398138       1.28058676       0.00000000
Si      -2.49693120       0.22136481      -2.82449942       0.00000000
Si       0.21872583      -2.49812037      -2.82846206       0.00000000
Si      -2.62283661      -2.75807619      -0.09630933       0.00000000
Si       2.90921481      -2.53034199       0.10967893       0.00000000
Si      -2.61451242       2.94195771       0.12422009       0.00000000
Si       0.99527013      -3.49018137       1.62926444       0.00000000
