10
Lattice="16.28999089631971 0.0 0.0 0.0 16.28999089631971 0.0 0.0 0.0 34.45770212530097" Properties=species:S:1:pos:R:3:initial_magmoms:R:1 pbc="T T T"
Si      -0.67098510       0.44821935       2.19278602       0.00000000
Si      -0.86077989       1.45106433      -1.62812734       0.00000000
Si       2.22363387       0.72363438      -0.19909671       0.00000000
Si      -0.02114442      -2.22480675      -0.84128527       0.00000000
Si       0.86599269       2.98489815      -1.61424087       0.00000000
Si      -2.09360709      -2.90675502       0.05785451       0.00000000
Si       3.69626616      -1.01327058       0.34674805       0.00000000
Si       2.85159708       0.76492953      -2.58419127       0.00000000
Si      -2.87068896      -0.43106598       2.66699318       0.00000000
Si       0.33971166      -1.05117741       3.81850131       0.00000000
