10
Lattice="16.28999089631971 0.0 0.0 0.0 16.28999089631971 0.0 0.0 0.0 34.45770212530097" Properties=species:S:1:pos:R:3:initial_magmoms:R:1 pbc="T T T"
Si       1.72677258       1.53383382       0.01388646       0.00000000
Si      -1.78702929       1.45516941       0.26701288       0.00000000
Si       0.86077989      -1.45106433       1.62812734       0.00000000
Si      -0.01555695      -0.52419591      -2.34708769       0.00000000
Si      -3.14006040      -0.46920087       0.75486530       0.00000000
Si      -1.32009273       2.57711058      -1.77722590       0.00000000
Si       3.08441376      -0.72742995       1.42903062       0.00000000
Si       1.01735937       3.06897084      -1.64063549       0.00000000
Si       2.25945558      -0.09024660      -2.83952299       0.00000000
Si       0.83963547      -3.67587108       0.78684207       0.00000000
