10
Lattice="16.28999089631971 0.0 0.0 0.0 16.28999089631971 0.0 0.0 0.0 34.45770212530097" Properties=species:S:1:pos:R:3:initial_magmoms:R:1 pbc="T T T"
Si      -1.41372765       1.25504676       1.35586999       0.00000000
Si       1.10467377       1.70430867      -1.24034462       0.00000000
Si       1.31795874      -1.45883466       1.34554645       0.00000000
Si      -1.83389562      -0.96914097      -1.29398013       0.00000000
Si      -0.39174192      -2.48472999      -2.37743947       0.00000000
Si       2.15611182       0.26925741      -2.80867785       0.00000000
Si      -2.69034237       2.50431057      -0.23823035       0.00000000
Si      -0.75163689       3.34775790      -1.35272510       0.00000000
Si      -0.05139495       2.60666064       2.71366961       0.00000000
Si       2.66308920      -0.10601532       2.71618502       0.00000000
