10
Lattice="16.28999089631971 0.0 0.0 0.0 16.28999089631971 0.0 0.0 0.0 34.45770212530097" Properties=species:S:1:pos:R:3:initial_magmoms:R:1 pbc="T T T"
Si       1.41372765      -1.25504676      -1.35586999       0.00000000
Si       1.36233270       1.35161388       1.35779962       0.00000000
Si      -1.34972424      -1.36366848       1.36210683       0.00000000
Si      -1.27661472       1.24926381      -1.59410034       0.00000000
Si      -0.42016797      -2.22418773      -2.64985012       0.00000000
Si       0.66209076       2.09271114      -2.70859509       0.00000000
Si       2.51840142       0.44926191      -2.59621461       0.00000000
Si      -2.11828644      -0.48371526      -2.95804518       0.00000000
Si      -2.69570178       2.70457983      -0.03455765       0.00000000
Si      -2.71205694      -2.70666495      -0.00523757       0.00000000
