10
Lattice="16.28999089631971 0.0 0.0 0.0 16.28999089631971 0.0 0.0 0.0 34.45770212530097" Properties=species:S:1:pos:R:3:initial_magmoms:R:1 pbc="T T T"
Si       1.73783349       0.96397704       1.23729511       0.00000000
Si       1.05143805      -1.43505126      -1.56833324       0.00000000
Si      -1.10467377      -1.70430867       1.24034462       0.00000000
Si      -1.85631066       1.64344923      -0.11238048       0.00000000
Si       0.22499748       2.26773090       2.59189705       0.00000000
Si      -2.51840142      -0.44926191       2.59621461       0.00000000
Si       2.17973232       1.85212413      -2.28491601       0.00000000
Si      -1.71170433       2.18263194      -2.52184730       0.00000000
Si       0.95526189      -0.35114724      -3.63269532       0.00000000
Si      -0.56040858      -2.58620040      -2.78200310       0.00000000
