10
Lattice="16.28999089631971 0.0 0.0 0.0 16.28999089631971 0.0 0.0 0.0 34.45770212530097" Properties=species:S:1:pos:R:3:initial_magmoms:R:1 pbc="T T T"
Si       1.35710361      -1.35728280      -1.35732410       0.00000000
Si       1.35754344       1.35651717       1.35766868       0.00000000
Si      -1.35744570       1.35729909      -1.35718627       0.00000000
Si      -1.35738054      -1.35806472       1.35691061       0.00000000
Si       2.71373481       0.00087966      -2.71482049       0.00000000
Si       2.71463076      -2.71502172       0.00048241       0.00000000
Si       0.00029322       2.71534752      -2.71444146       0.00000000
Si       2.71451673       2.71533123      -0.00027566       0.00000000
Si      -2.71469592      -2.71526607       0.00003446       0.00000000
Si       0.00104256      -2.71621089       2.71382122       0.00000000
