10
Lattice="16.28999089631971 0.0 0.0 0.0 16.28999089631971 0.0 0.0 0.0 34.45770212530097" Properties=species:S:1:pos:R:3:initial_magmoms:R:1 pbc="T T T"
Si      -1.35418770      -1.34996859      -1.37000454       0.00000000
Si       1.35760860       1.36819710      -1.37531103       0.00000000
Si      -1.46987928       1.33618725       1.33702851       0.00000000
Si       1.30746798      -1.44298449       1.45635559       0.00000000
Si      -0.12800682       2.71826343       2.62343862       0.00000000
Si       2.70260874       2.71342530      -0.02108813       0.00000000
Si       2.70938538      -2.70915732      -0.00182626       0.00000000
Si      -2.73191445      -2.70871749       0.02243198       0.00000000
Si       0.00086337      -2.70866862      -2.73218719       0.00000000
Si       2.71446786       0.00739566      -2.73173924       0.00000000
