10
Lattice="16.28999089631971 0.0 0.0 0.0 16.28999089631971 0.0 0.0 0.0 34.45770212530097" Properties=species:S:1:pos:R:3:initial_magmoms:R:1 pbc="T T T"
Si       0.05056416       2.32259562       0.65417984       0.00000000
Si       1.31986467      -1.62323334       1.25464009       0.00000000
Si      -2.27494737      -0.36818658      -0.80052178       0.00000000
Si       1.50776982       0.13049919      -2.04461781       0.00000000
Si       0.52020486      -3.33909162      -0.09444861       0.00000000
Si      -0.06491565       1.37964897      -3.22176249       0.00000000
Si      -2.49178356       1.28528100      -2.50590333       0.00000000
Si       0.53374185       2.33719146       2.98793239       0.00000000
Si      -0.00403992      -2.99651292      -2.38984972       0.00000000
Si       1.92800295       3.43096722      -0.20726319       0.00000000
