10
Lattice="16.28999089631971 0.0 0.0 0.0 16.28999089631971 0.0 0.0 0.0 34.45770212530097" Properties=species:S:1:pos:R:3:initial_magmoms:R:1 pbc="T T T"
Si      -0.22429701       2.26968570      -0.67426869       0.00000000
Si      -2.17539918      -0.93191832       0.51869208       0.00000000
Si       0.55407177      -0.64066941       2.29360931       0.00000000
Si       1.85567535      -1.36731744      -0.87684564       0.00000000
Si       2.71542897      -0.81176328       1.26146272       0.00000000
Si       2.66786217       1.55470131       0.69680404       0.00000000
Si      -2.51408457       2.31534657      -0.05999089       0.00000000
Si      -1.62263061      -3.03173190      -0.41397506       0.00000000
Si       0.07266969       1.34082990       3.50951892       0.00000000
Si      -1.75516605       2.36854971       2.35604670       0.00000000
