10
Lattice="16.28999089631971 0.0 0.0 0.0 16.28999089631971 0.0 0.0 0.0 34.45770212530097" Properties=species:S:1:pos:R:3:initial_magmoms:R:1 pbc="T T T"
Si      -1.35476394      -1.35741312      -1.35718627       0.00000000
Si       1.35728769      -1.35707103       1.35718627       0.00000000
Si      -1.35747332       1.35773892       1.35763422       0.00000000
Si       1.35880266       1.35767376      -1.35742748       0.00000000
Si      -0.00089921      -2.71480995      -2.71096123       0.00000000
Si       2.71383744       0.00052128       2.71471712       0.00000000
Si       0.00121686       2.71397916       2.71468266       0.00000000
Si       2.71455420      -2.71446786      -0.00041349       0.00000000
Si      -2.71497515      -2.71423980       0.00000000       0.00000000
Si      -0.00098392      -2.71557558       2.71420026       0.00000000
