10
Lattice="16.28999089631971 0.0 0.0 0.0 16.28999089631971 0.0 0.0 0.0 34.45770212530097" Properties=species:S:1:pos:R:3:initial_magmoms:R:1 pbc="T T T"
Si      -1.62842985      -1.19904174      -1.12788392       0.00000000
Si      -1.46458503       1.16822106       1.45683456       0.00000000
Si       1.24022286      -1.55326779       1.43770363       0.00000000
Si       1.29026574       1.55978379      -1.63237050       0.00000000
Si      -0.34057503      -1.82654883      -2.96302433       0.00000000
Si       2.69338860       2.66520690      -0.01803173       0.00000000
Si      -0.11945457       2.52104040       2.82747312       0.00000000
Si       2.06728245      -1.40364414      -2.85386226       0.00000000
Si      -2.78254377       2.62705572       0.11128810       0.00000000
Si       2.59735905      -0.19562661       2.82306253       0.00000000
