10
Lattice="16.28999089631971 0.0 0.0 0.0 16.28999089631971 0.0 0.0 0.0 34.45770212530097" Properties=species:S:1:pos:R:3:initial_magmoms:R:1 pbc="T T T"
Si      -1.35547461       1.35689184       1.35870241       0.00000000
Si      -1.35705474      -1.35744570      -1.35718627       0.00000000
Si       1.35816972       1.35764118      -1.35701398       0.00000000
Si       1.36041229      -1.35933534       1.36145903       0.00000000
Si      -2.71414206       2.71409319       0.00000000       0.00000000
Si       0.00066789      -2.71433754      -2.71464821       0.00000000
Si      -2.71458189       0.00029322      -2.71499278       0.00000000
Si       0.00068418       2.71515204      -2.71499278       0.00000000
Si       2.71564304      -0.00009774      -2.71464821       0.00000000
Si       2.71465912      -2.71567332      -0.00044795       0.00000000
