10
Lattice="16.28999089631971 0.0 0.0 0.0 16.28999089631971 0.0 0.0 0.0 34.45770212530097" Properties=species:S:1:pos:R:3:initial_magmoms:R:1 pbc="T T T"
Si       2.27104821      -0.08628813       0.59474027       0.00000000
Si      -1.51024590      -0.61840098       1.71027454       0.00000000
Si      -0.11471418      -2.07114318      -1.21914864       0.00000000
Si      -0.65834406       2.21004801      -0.73632705       0.00000000
Si      -3.20049630      -1.31457042       0.22866144       0.00000000
Si       3.37130414      -0.39618909      -1.47417024       0.00000000
Si       2.39234844       1.62986337      -2.40049716       0.00000000
Si       1.11444777      -3.58917570       0.23258962       0.00000000
Si       2.69417934      -2.26602045       1.40153336       0.00000000
Si      -1.82091249       1.16105346       3.25970044       0.00000000
