10
Lattice="16.28999089631971 0.0 0.0 0.0 16.28999089631971 0.0 0.0 0.0 34.45770212530097" Properties=species:S:1:pos:R:3:initial_magmoms:R:1 pbc="T T T"
Si      -1.38145620       1.27565361       1.37131394       0.00000000
Si       1.33290481       1.36673100      -1.36428456       0.00000000
Si      -1.37997200      -1.34951247      -1.35756531       0.00000000
Si       1.43742145      -1.35850455       1.48082058       0.00000000
Si       0.74206651       1.56921570       2.81364524       0.00000000
Si      -2.17647336      -0.53706501       2.75727241       0.00000000
Si      -0.42541498      -2.22423660       2.76785093       0.00000000
Si       2.68251502       2.71362078       0.00868335       0.00000000
Si       2.68909618       0.01024641      -2.71895542       0.00000000
Si      -0.02572517      -2.70585045      -2.71947229       0.00000000
