10
Lattice="16.28999089631971 0.0 0.0 0.0 16.28999089631971 0.0 0.0 0.0 34.45770212530097" Properties=species:S:1:pos:R:3:initial_magmoms:R:1 pbc="T T T"
Si       1.34500014       1.34522820       1.35422291       0.00000000
Si      -1.35692442       1.35343836      -1.35670386       0.00000000
Si       1.35685926      -1.36080144      -1.35642820       0.00000000
Si      -1.35760860      -1.36819710       1.37531103       0.00000000
Si       2.64500730      -0.07382628       2.70282921       0.00000000
Si       0.00063531       2.71181792      -2.71447592       0.00000000
Si      -2.71601541       2.71189552       0.00354915       0.00000000
Si      -2.71463076      -0.00317655      -2.71457929       0.00000000
Si       2.71494433      -0.00293220      -2.71468266       0.00000000
Si      -2.71179630      -2.71816569       0.00530649       0.00000000
