10
Lattice="16.28999089631971 0.0 0.0 0.0 16.28999089631971 0.0 0.0 0.0 34.45770212530097" Properties=species:S:1:pos:R:3:initial_magmoms:R:1 pbc="T T T"
Si      -1.34500014      -1.34522820      -1.35422291       0.00000000
Si      -1.27027791       1.29503871       1.49315644       0.00000000
Si       1.30000716      -1.41905448       1.34860630       0.00000000
Si       1.36930985       1.37055915      -1.35091497       0.00000000
Si       0.58661919       2.04874347       2.80933802       0.00000000
Si       2.27037707       0.25785441       2.70179548       0.00000000
Si      -2.68596036       2.71861108       0.03311387       0.00000000
Si      -2.70192456       0.00821016      -2.71092677       0.00000000
Si      -2.70260874      -2.71342530       0.02108813       0.00000000
Si       0.01185912      -2.70602964      -2.71065111       0.00000000
