10
Lattice="16.28999089631971 0.0 0.0 0.0 16.28999089631971 0.0 0.0 0.0 34.45770212530097" Properties=species:S:1:pos:R:3:initial_magmoms:R:1 pbc="T T T"
Si       1.35651717       1.35726651       1.35756531       0.00000000
Si      -1.35880266      -1.35767376       1.35742748       0.00000000
Si       1.35711990      -1.35668007      -1.36028747       0.00000000
Si      -1.35836283       1.35581670      -1.36287180       0.00000000
Si       2.71347417       0.00026064       2.71399351       0.00000000
Si      -2.71356660      -2.71508688       0.00024120       0.00000000
Si       2.71379997      -2.71495656       0.00055132       0.00000000
Si      -0.00151497      -2.71474479       2.71461375       0.00000000
Si      -0.00114030       2.71492398       2.71471712       0.00000000
Si       2.71507059       2.71461447      -0.00058578       0.00000000
