10
Lattice="16.28999089631971 0.0 0.0 0.0 16.28999089631971 0.0 0.0 0.0 34.45770212530097" Properties=species:S:1:pos:R:3:initial_magmoms:R:1 pbc="T T T"
Si      -0.85612095       1.83632283       1.29347395       0.00000000
Si       1.53787374      -0.99386919       1.68091656       0.00000000
Si       1.20182733       0.69077745      -2.44584352       0.00000000
Si       0.47307789       3.02884857      -0.24020478       0.00000000
Si       0.88549182      -1.99313037      -2.28392669       0.00000000
Si      -2.57642037      -1.99213668       0.98700697       0.00000000
Si       3.32457723       0.59815251      -1.31818013       0.00000000
Si      -1.80751071      -1.66847067      -2.73439248       0.00000000
Si       3.54141342      -1.05531507       0.38720142       0.00000000
Si       0.11798847       2.87153604      -2.61575455       0.00000000
