10
Lattice="16.28999089631971 0.0 0.0 0.0 16.28999089631971 0.0 0.0 0.0 34.45770212530097" Properties=species:S:1:pos:R:3:initial_magmoms:R:1 pbc="T T T"
Si       0.17902710      -0.56974275       2.31921140       0.00000000
Si      -1.12176524       2.12105574      -0.33427436       0.00000000
Si      -0.95289658      -1.94338071      -1.09303338       0.00000000
Si       2.17898298       0.67137606      -0.83098241       0.00000000
Si      -1.68444513       1.77160266      -2.66771679       0.00000000
Si       2.24971416       0.41039397       2.92938873       0.00000000
Si       0.45084204       3.79091106       0.62578668       0.00000000
Si       3.59448624       0.97360443       1.06370986       0.00000000
Si       0.14735934      -2.25328167      -3.16194389       0.00000000
Si      -1.76896580       0.24718446       3.51289578       0.00000000
