10
Lattice="16.28999089631971 0.0 0.0 0.0 16.28999089631971 0.0 0.0 0.0 34.45770212530097" Properties=species:S:1:pos:R:3:initial_magmoms:R:1 pbc="T T T"
Si       0.46210983      -2.12843511       0.75393494       0.00000000
Si      -0.44381014      -0.18124254      -2.29898471       0.00000000
Si       1.91921938       1.32436071       0.35904946       0.00000000
Si      -1.96450299       0.10795383       1.33675284       0.00000000
Si      -2.89474344      -1.76164947       0.02859991       0.00000000
Si      -1.07233227       2.10219192      -2.56506724       0.00000000
Si       0.60332296      -1.67953158       3.13520470       0.00000000
Si      -2.26678023      -1.72035432      -2.35649465       0.00000000
Si       1.15450162       3.30023997       1.43847204       0.00000000
Si       2.80757824       1.86025284      -1.73622121       0.00000000
