10
Lattice="16.28999089631971 0.0 0.0 0.0 16.28999089631971 0.0 0.0 0.0 34.45770212530097" Properties=species:S:1:pos:R:3:initial_magmoms:R:1 pbc="T T T"
Si      -1.34852530      -1.35290405       1.35611808       0.00000000
Si      -1.35659373       1.35742941      -1.36142457       0.00000000
Si       1.35855342      -1.35695537      -1.36245830       0.00000000
Si       1.37557647       1.34338743       1.36456022       0.00000000
Si      -2.71433970      -2.71014191      -0.00079253       0.00000000
Si      -2.71084057       2.71376739       0.00048241       0.00000000
Si       2.72445363      -0.12818601       2.70327716       0.00000000
Si       2.71309950       2.71834488      -0.00113710       0.00000000
Si      -2.71322266       0.00058644      -2.71867976       0.00000000
Si       0.00166158      -2.71388656      -2.71864530       0.00000000
