10
Lattice="16.28999089631971 0.0 0.0 0.0 16.28999089631971 0.0 0.0 0.0 34.45770212530097" Properties=species:S:1:pos:R:3:initial_magmoms:R:1 pbc="T T T"
Si      -1.32919884      -1.19252574       1.53367872       0.00000000
Si      -0.40808079       2.21971680       0.73687837       0.00000000
Si       2.36392335      -0.26554329      -0.27097552       0.00000000
Si      -0.35508942      -0.15731253      -2.37554977       0.00000000
Si      -0.47307789      -3.02884857       0.24020478       0.00000000
Si       1.06898238       1.90692110      -2.42513443       0.00000000
Si       0.72874944      -2.33807112      -2.20563875       0.00000000
Si      -3.36744341      -0.04233771       1.18679284       0.00000000
Si      -2.77110004       2.30856734       0.90744409       0.00000000
Si       0.32522985       3.70928906      -0.95261817       0.00000000
