10
Lattice="16.28999089631971 0.0 0.0 0.0 16.28999089631971 0.0 0.0 0.0 34.45770212530097" Properties=species:S:1:pos:R:3:initial_magmoms:R:1 pbc="T T T"
Si      -1.72671394       0.41837607       1.46128305       0.00000000
Si      -0.25155018      -0.51632784      -2.30753023       0.00000000
Si       1.64379132       1.69741800       0.49832757       0.00000000
Si       0.16343757      -2.32547895       0.67950627       0.00000000
Si       2.49240258      -2.04833718       0.04910225       0.00000000
Si       3.33387882       0.17171289      -0.12566731       0.00000000
Si      -0.56385554      -0.35256447       3.40073590       0.00000000
Si      -2.28979475       0.63386019      -2.65441611       0.00000000
Si      -3.54391298      -0.96741423       0.91102770       0.00000000
Si      -0.51309102      -2.65847913       2.97480400       0.00000000
