10
Lattice="10.86 0.0 0.0 0.0 10.86 0.0 0.0 0.0 10.86" Properties=species:S:1:pos:R:3:initial_magmoms:R:1 pbc="T T T"
Si       1.35138582       1.28506380      -1.42091154       0.00000000
Si       1.35138582      -1.42993620       1.29408846       0.00000000
Si      -1.36361418      -1.42993620      -1.42091154       0.00000000
Si      -0.00810156       2.50696584       2.67025680       0.00000000
Si      -2.80677786       2.50290420       0.01045818       0.00000000
Si       2.70888582       2.64256380      -0.06341154       0.00000000
Si       2.70888582      -0.07243620       2.65158846       0.00000000
Si      -0.00611418       2.64256380      -2.77841154       0.00000000
Si      -0.00611418      -2.78743620       2.65158846       0.00000000
Si       2.70888582      -0.07243620      -2.77841154       0.00000000
