10
Lattice="10.86 0.0 0.0 0.0 10.86 0.0 0.0 0.0 10.86" Properties=species:S:1:pos:R:3:initial_magmoms:R:1 pbc="T T T"
Si       1.35948738      -1.22190204       1.33883166       0.00000000
Si      -1.35551262       1.49309796       1.33883166       0.00000000
Si       1.35948738       1.49309796      -1.37616834       0.00000000
Si       0.00810156      -2.50696584      -2.67025680       0.00000000
Si       0.00198738      -2.57940204       2.69633166       0.00000000
Si       2.71698738      -2.57940204      -0.01866834       0.00000000
Si      -2.81166486      -2.53648332       0.01714794       0.00000000
Si      -2.71301262       0.13559796       2.69633166       0.00000000
Si       2.71698738       0.13559796       2.69633166       0.00000000
Si       2.71698738       0.13559796      -2.73366834       0.00000000
