10
Lattice="16.28999089631971 0.0 0.0 0.0 16.28999089631971 0.0 0.0 0.0 34.2284985734139" Properties=species:S:1:pos:R:3:initial_magmoms:R:1 pbc="T T T"
Si       1.35040842       1.33576371       1.37324813       0.00000000
Si       1.35211887      -1.35741312      -1.35589427       0.00000000
Si      -1.34078103      -1.36255099       1.36434872       0.00000000
Si      -1.36037790       1.35387819      -1.35616810       0.00000000
Si      -0.07175745       2.65445550       2.72339201       0.00000000
Si       2.71231758      -0.00042354      -2.71298654       0.00000000
Si      -0.00275301       2.71415835      -2.71332883       0.00000000
Si      -0.00241092      -2.71571384      -2.71329460       0.00000000
Si       2.71531494       2.71521720       0.00438125       0.00000000
Si      -2.71753038      -0.00042354      -2.71312346       0.00000000
