10
Lattice="16.28999089631971 0.0 0.0 0.0 16.28999089631971 0.0 0.0 0.0 34.2284985734139" Properties=species:S:1:pos:R:3:initial_magmoms:R:1 pbc="T T T"
Si      -1.75034421      -0.39126951       1.49629965       0.00000000
Si      -1.17327096       0.68668866      -1.96440886       0.00000000
Si       0.87221547      -2.27670995       0.21728263       0.00000000
Si       2.69755884       0.86602527       1.30054676       0.00000000
Si      -0.37955700      -0.33374952       3.41994235       0.00000000
Si       1.90319328      -0.71643420       2.93139871       0.00000000
Si       1.62771309       2.96909685       1.56427749       0.00000000
Si       0.50287230       1.73112201      -3.28864175       0.00000000
Si      -3.39607404       1.21555980       1.05930417       0.00000000
Si       2.04268455      -2.88892236      -1.77276339       0.00000000
