10
Lattice="16.28999089631971 0.0 0.0 0.0 16.28999089631971 0.0 0.0 0.0 34.2284985734139" Properties=species:S:1:pos:R:3:initial_magmoms:R:1 pbc="T T T"
Si      -1.87706412      -0.74659906      -1.14829831       0.00000000
Si      -1.31916420       0.20985430       1.91734465       0.00000000
Si       0.83292399       1.97113398      -1.14453317       0.00000000
Si       1.63532052      -1.84408894       0.16847276       0.00000000
Si      -0.48998691      -2.04426046      -2.49638848       0.00000000
Si      -1.48677201      -2.11510567       2.20188632       0.00000000
Si       2.25166896       0.69405663      -2.49098038       0.00000000
Si       3.47599278      -0.78971869      -1.06159748       0.00000000
Si       0.72106056      -3.55706389      -1.08261379       0.00000000
Si       1.11394278      -2.68126462       2.48721524       0.00000000
