10
Lattice="16.28999089631971 0.0 0.0 0.0 16.28999089631971 0.0 0.0 0.0 34.2284985734139" Properties=species:S:1:pos:R:3:initial_magmoms:R:1 pbc="T T T"
Si       1.94365275      -1.25019723      -0.44247205       0.00000000
Si       0.10831384       0.28979910       2.44364234       0.00000000
Si      -1.94316472      -1.46973267       0.40714822       0.00000000
Si      -0.18240076       1.93380219      -1.62797676       0.00000000
Si      -1.89647758      -1.53323761      -1.96848205       0.00000000
Si      -1.32508954       0.53703243      -3.27919468       0.00000000
Si       3.20001900      -0.79770664       1.43112855       0.00000000
Si      -1.27419565       3.51826533       0.01612163       0.00000000
Si       1.57574310      -1.40490824       3.14299941       0.00000000
Si       1.41507483       2.24233479       2.71360265       0.00000000
