10
Lattice="16.28999089631971 0.0 0.0 0.0 16.28999089631971 0.0 0.0 0.0 34.2284985734139" Properties=species:S:1:pos:R:3:initial_magmoms:R:1 pbc="T T T"
Si      -1.21956714      -1.29813218       1.58326545       0.00000000
Si      -1.45637487       1.54453635      -1.14740837       0.00000000
Si       1.36925595       1.34086248       1.57905535       0.00000000
Si       0.74085291      -1.11059681      -2.09967996       0.00000000
Si      -0.10899639       2.42434296      -2.86855515       0.00000000
Si      -2.06918838      -3.14547587       0.36843786       0.00000000
Si       2.93573493       2.52920169       0.32345861       0.00000000
Si      -2.47738320       2.96632755       0.46550001       0.00000000
Si       0.09731646      -2.59929440       3.02504592       0.00000000
Si      -2.64367152       0.12061116       2.99574289       0.00000000
