10
Lattice="16.28999089631971 0.0 0.0 0.0 16.28999089631971 0.0 0.0 0.0 34.2284985734139" Properties=species:S:1:pos:R:3:initial_magmoms:R:1 pbc="T T T"
Si      -1.91304873       1.34760654       0.29902033       0.00000000
Si      -0.96785406      -2.18092149       0.25171652       0.00000000
Si       1.65084489       1.92601557      -0.72786943       0.00000000
Si       1.94017158      -0.04290786       1.91125197       0.00000000
Si      -0.44743743      -0.87876405      -2.56614620       0.00000000
Si      -1.13691168       3.58560819       0.44240359       0.00000000
Si       1.12202262       3.55814325       1.15754001       0.00000000
Si       0.67787577      -3.78775080       0.68871200       0.00000000
Si      -3.40851960       0.73992438       2.02889539       0.00000000
Si       1.25494902      -2.70979263      -2.77199651       0.00000000
