10
Lattice="16.28999089631971 0.0 0.0 0.0 16.28999089631971 0.0 0.0 0.0 34.2284985734139" Properties=species:S:1:pos:R:3:initial_magmoms:R:1 pbc="T T T"
Si       1.46742926      -1.69470734       0.69935707       0.00000000
Si       1.30676099       1.95253569       0.26996032       0.00000000
Si      -2.05271660       0.49581873       1.15497287       0.00000000
Si      -0.10831384      -0.28979910      -2.44364234       0.00000000
Si      -0.59139705       3.28018698      -0.02395996       0.00000000
Si      -2.05147856      -1.75953177      -2.03649412       0.00000000
Si       3.09170516      -1.08750574      -1.01251378       0.00000000
Si       1.46316128      -1.41771544       3.11883408       0.00000000
Si       1.83533891      -1.53999633      -2.88611438       0.00000000
Si      -2.43522209      -1.37725760       2.56176495       0.00000000
