10
Lattice="16.28999089631971 0.0 0.0 0.0 16.28999089631971 0.0 0.0 0.0 34.2284985734139" Properties=species:S:1:pos:R:3:initial_magmoms:R:1 pbc="T T T"
Si       0.93286314      -1.64915073       1.34613131       0.00000000
Si      -1.79393625       0.89308296       1.21117706       0.00000000
Si      -1.23717663      -1.46331441      -1.54880620       0.00000000
Si       1.90290006       1.58773743      -0.54200858       0.00000000
Si       0.43611588       1.51672932      -3.03836283       0.00000000
Si       2.33996076      -0.29168874       2.59804516       0.00000000
Si      -1.21529916       2.80903131      -1.72316627       0.00000000
Si      -0.49689387       2.36672523       2.54758891       0.00000000
Si       1.95387147      -3.07094193      -0.26677707       0.00000000
Si      -3.10830956       2.04628464      -0.42166111       0.00000000
