10
Lattice="16.28999089631971 0.0 0.0 0.0 16.28999089631971 0.0 0.0 0.0 34.2284985734139" Properties=species:S:1:pos:R:3:initial_magmoms:R:1 pbc="T T T"
Si       1.34462547       1.35076680       1.36100801       0.00000000
Si      -1.28335878       1.42910541      -1.35932397       0.00000000
Si      -1.36774098      -1.36296801       1.36025498       0.00000000
Si       1.55349585      -1.22930856      -1.30886771       0.00000000
Si       0.14639823      -2.58677055      -2.56078157       0.00000000
Si      -2.58040116      -0.04453686      -2.69573581       0.00000000
Si       0.30750633       2.49614928      -2.87851706       0.00000000
Si       2.70319518      -0.00444717       2.71984594       0.00000000
Si       2.74328487       2.68589520      -0.00480911       0.00000000
Si      -0.01091430       2.71384884       2.72001708       0.00000000
