10
Lattice="16.28999089631971 0.0 0.0 0.0 16.28999089631971 0.0 0.0 0.0 34.2284985734139" Properties=species:S:1:pos:R:3:initial_magmoms:R:1 pbc="T T T"
Si      -1.71545659      -0.24438747      -1.57273193       0.00000000
Si      -0.02699090       2.16630773       1.04345636       0.00000000
Si      -0.70067104      -1.70865063       1.56807685       0.00000000
Si       2.18292679      -0.28484531      -1.01566281       0.00000000
Si       2.71762975      -2.00511234       0.51489959       0.00000000
Si       1.64462374      -1.62742869       2.65507189       0.00000000
Si      -1.33295110       1.62868886      -2.97952401       0.00000000
Si      -2.20710508       2.24353862       1.92395075       0.00000000
Si      -3.88564297      -0.22342224      -0.53232191       0.00000000
Si      -1.73893048      -2.38431096      -2.70271799       0.00000000
