10
Lattice="16.28999089631971 0.0 0.0 0.0 16.28999089631971 0.0 0.0 0.0 34.2284985734139" Properties=species:S:1:pos:R:3:initial_magmoms:R:1 pbc="T T T"
Si      -0.63628740       0.89270829      -2.12411912       0.00000000
Si       2.21985459      -1.00685232      -0.43860423       0.00000000
Si      -0.52882227       1.63212768       1.88540944       0.00000000
Si      -1.65084489      -1.92601557       0.72786943       0.00000000
Si       0.28932669      -1.96892343       2.63912140       0.00000000
Si      -2.78775657       1.65959262       1.17027302       0.00000000
Si       0.37300842       0.24840621       3.59091379       0.00000000
Si       2.40508818      -2.35340001       1.48455927       0.00000000
Si      -3.56389362      -0.57840903       1.02688976       0.00000000
Si      -1.48734216      -0.94734495      -3.33728048       0.00000000
