10
Lattice="16.28999089631971 0.0 0.0 0.0 16.28999089631971 0.0 0.0 0.0 34.2284985734139" Properties=species:S:1:pos:R:3:initial_magmoms:R:1 pbc="T T T"
Si       1.30655574      -1.28138769       1.48639050       0.00000000
Si       1.87996374       0.89845866      -1.17641293       0.00000000
Si      -1.13274144      -1.49037210      -1.55214146       0.00000000
Si      -1.40411655       1.44303299       1.44481654       0.00000000
Si      -2.59220489      -2.57544900       0.02723905       0.00000000
Si       3.42886581      -0.95092875      -1.07306403       0.00000000
Si       2.65751802      -2.71819827       0.19956253       0.00000000
Si       2.72958498       2.74580235       0.03841467       0.00000000
Si      -0.04290786      -2.62384659       2.84815496       0.00000000
Si       2.67247224       0.09032805       2.84113811       0.00000000
