10
Lattice="16.28999089631971 0.0 0.0 0.0 16.28999089631971 0.0 0.0 0.0 34.2284985734139" Properties=species:S:1:pos:R:3:initial_magmoms:R:1 pbc="T T T"
Si       1.35635427      -1.35801585       1.35996747       0.00000000
Si      -1.35896067       1.35709702       1.35965941       0.00000000
Si       1.37399634       1.35431208      -1.36094298       0.00000000
Si      -1.36591650      -1.37171574      -1.35474762       0.00000000
Si       2.65116492      -0.11137473      -2.74866635       0.00000000
Si       2.71762812       2.71154448       0.00301211       0.00000000
Si      -2.71538010      -2.71417464       0.00701685       0.00000000
Si      -2.71376739       2.71591508      -0.00325171       0.00000000
Si       2.71427238       0.00076563       2.71743625       0.00000000
Si      -0.00136836      -2.71437012       2.71760739       0.00000000
