10
Lattice="16.28999089631971 0.0 0.0 0.0 16.28999089631971 0.0 0.0 0.0 34.2284985734139" Properties=species:S:1:pos:R:3:initial_magmoms:R:1 pbc="T T T"
Si      -0.91425996      -1.71297495      -1.25108655       0.00000000
Si       1.84067226       1.05437025      -1.23007024       0.00000000
Si      -1.63532052       1.84408894      -0.16847276       0.00000000
Si      -0.52137774      -0.83717568       2.31874247       0.00000000
Si       0.17629038       1.21540653       3.16100361       0.00000000
Si      -2.12530743      -0.20017152      -2.66486125       0.00000000
Si       0.61634844       2.53814557      -2.65945314       0.00000000
Si      -3.12209253      -0.27101673       2.03341355       0.00000000
Si      -1.71170433      -3.48285087       0.24541847       0.00000000
Si      -3.51238464       1.09748988      -1.31677108       0.00000000
