10
Lattice="16.28999089631971 0.0 0.0 0.0 16.28999089631971 0.0 0.0 0.0 34.2284985734139" Properties=species:S:1:pos:R:3:initial_magmoms:R:1 pbc="T T T"
Si       2.27835198      -0.38283129      -0.24182448       0.00000000
Si       0.00307881       1.86710183       1.42383788       0.00000000
Si      -0.06480162       0.22661982      -2.33623325       0.00000000
Si      -1.01491587      -2.05827408       0.61193744       0.00000000
Si      -1.93921047       1.51764712      -1.87476437       0.00000000
Si       0.04054581      -3.19609800      -1.13303239       0.00000000
Si       2.19822147      -2.69218314      -0.37213244       0.00000000
Si       0.76185072       3.50149382      -0.08906260       0.00000000
Si       3.09874896      -0.28900089       1.91203923       0.00000000
Si       1.75979241       1.29543523       2.93721756       0.00000000
