10
Lattice="16.28999089631971 0.0 0.0 0.0 16.28999089631971 0.0 0.0 0.0 34.2284985734139" Properties=species:S:1:pos:R:3:initial_magmoms:R:1 pbc="T T T"
Si      -1.05546168       1.13782392       1.74496983       0.00000000
Si       2.15767566       0.50391486       0.76089995       0.00000000
Si      -0.20533545      -2.30402502      -0.41084490       0.00000000
Si      -0.80301555       1.37013561      -2.04546199       0.00000000
Si      -0.04054581       3.19609800       1.13303239       0.00000000
Si      -2.46426975      -2.27656008      -1.12598132       0.00000000
Si      -0.10534743       3.42271782      -1.20320085       0.00000000
Si       2.23780617       2.81326671       0.89120792       0.00000000
Si      -3.30744015       0.65695941       1.53651816       0.00000000
Si       2.07322830       0.77476869       3.12136699       0.00000000
