10
Lattice="16.28999089631971 0.0 0.0 0.0 16.28999089631971 0.0 0.0 0.0 34.2284985734139" Properties=species:S:1:pos:R:3:initial_magmoms:R:1 pbc="T T T"
Si       1.27923741      -1.92109599       0.42888333       0.00000000
Si      -2.27981808      -0.10529856      -0.73207954       0.00000000
Si       1.24110252       1.12834055      -1.71810045       0.00000000
Si       1.60427178       1.61752925       1.21798757       0.00000000
Si       2.92089474      -0.40221639       1.35082845       0.00000000
Si      -0.16449642       2.86597205      -2.47105938       0.00000000
Si      -3.43482795       1.50959334       0.67457563       0.00000000
Si      -1.20576951      -0.41734980       3.68610539       0.00000000
Si       0.22916772      -3.56998608       1.69307940       0.00000000
Si      -3.30913431      -2.20157721      -0.25116886       0.00000000
