10
Lattice="16.28999089631971 0.0 0.0 0.0 16.28999089631971 0.0 0.0 0.0 34.2284985734139" Properties=species:S:1:pos:R:3:initial_magmoms:R:1 pbc="T T T"
Si      -1.68741594       1.61816715      -0.33075017       0.00000000
Si       0.82777635      -0.44432604      -2.20698636       0.00000000
Si      -1.27547442      -0.56462769       1.96006184       0.00000000
Si       1.85088609       0.24975828       1.61349810       0.00000000
Si      -2.14040826      -2.31761088       0.63428866       0.00000000
Si      -2.74159071       0.45447471      -2.05764734       0.00000000
Si       2.90095578       1.89864837       0.34930202       0.00000000
Si      -1.07364132      -0.08404011      -3.49199338       0.00000000
Si      -0.48899322      -3.60991287      -0.68090790       0.00000000
Si       0.16886214      -1.69287309       3.38585074       0.00000000
