10
Lattice="16.28999089631971 0.0 0.0 0.0 16.28999089631971 0.0 0.0 0.0 34.2284985734139" Properties=species:S:1:pos:R:3:initial_magmoms:R:1 pbc="T T T"
Si      -1.58451201      -0.88073744      -1.44553876       0.00000000
Si      -1.17046908       0.61221241       1.99004602       0.00000000
Si       1.11506679       1.80042456      -1.38197640       0.00000000
Si      -0.12209355      -2.11773488      -2.86133294       0.00000000
Si       0.34661862       0.05129232       3.72454193       0.00000000
Si       2.61565272       0.60015781      -2.84134348       0.00000000
Si      -3.42518427      -1.93510769      -0.21546852       0.00000000
Si      -2.04268455       2.88892236       1.77276339       0.00000000
Si       2.95906221      -2.75237699      -0.24175602       0.00000000
Si      -2.80883583       0.60303788      -2.87492166       0.00000000
