10
Lattice="16.28999089631971 0.0 0.0 0.0 16.28999089631971 0.0 0.0 0.0 34.2284985734139" Properties=species:S:1:pos:R:3:initial_magmoms:R:1 pbc="T T T"
Si       1.35505107      -1.35746199       1.36205540       0.00000000
Si      -1.36024758       1.35995436       1.36267152       0.00000000
Si       1.36282140       1.35935163      -1.36716572       0.00000000
Si      -1.36919079      -1.36604682      -1.36550906       0.00000000
Si      -0.05023836       2.69495244      -2.72468585       0.00000000
Si       2.71127502      -2.71441410       0.00188257       0.00000000
Si       2.71145421       2.71722087       0.00290942       0.00000000
Si      -2.71542897       2.71528236       0.00578462       0.00000000
Si      -2.71386513      -2.71783826       0.00554502       0.00000000
Si       2.71277370       0.00130320       2.71918190       0.00000000
