10
Lattice="16.28999089631971 0.0 0.0 0.0 16.28999089631971 0.0 0.0 0.0 34.2284985734139" Properties=species:S:1:pos:R:3:initial_magmoms:R:1 pbc="T T T"
Si       1.84099806       0.94537386      -1.33279002       0.00000000
Si      -0.78512913      -1.99027962      -1.30612601       0.00000000
Si      -1.71440847       1.90190637      -0.19725895       0.00000000
Si       2.36003004       0.90044604       1.65689986       0.00000000
Si      -1.24532163      -0.03575655       3.14916054       0.00000000
Si      -2.01784230      -0.48935160      -2.79017185       0.00000000
Si       0.69458931       2.25043092      -2.84017971       0.00000000
Si       2.45211741       2.79808443       0.07663765       0.00000000
Si      -3.44000817       0.82934019      -1.44002797       0.00000000
Si       1.06831449       0.43473123       3.70359407       0.00000000
