10
Lattice="16.28999089631971 0.0 0.0 0.0 16.28999089631971 0.0 0.0 0.0 34.2284985734139" Properties=species:S:1:pos:R:3:initial_magmoms:R:1 pbc="T T T"
Si       0.28817010       0.66116223       2.16235238       0.00000000
Si       0.74072259       1.52034570      -1.60822690       0.00000000
Si       0.57267495      -2.28918483       0.03593994       0.00000000
Si      -2.09994390       0.02432097       1.54480146       0.00000000
Si      -3.15258741      -0.69320466      -0.53307493       0.00000000
Si      -0.49708935       0.54488421      -3.34149058       0.00000000
Si       2.99708307       0.81032976      -1.66860601       0.00000000
Si      -2.61285084       0.92936079      -2.18692845       0.00000000
Si       1.93370445      -0.79052112       2.93992161       0.00000000
Si      -0.36295749      -3.05613432       2.04772107       0.00000000
