10
Lattice="16.28999089631971 0.0 0.0 0.0 16.28999089631971 0.0 0.0 0.0 34.2284985734139" Properties=species:S:1:pos:R:3:initial_magmoms:R:1 pbc="T T T"
Si      -1.41068142       1.54473183       1.03479655       0.00000000
Si       0.84377313       0.95636961      -1.95759738       0.00000000
Si      -1.44335916      -1.79462043      -0.60204540       0.00000000
Si       1.99016559      -0.32198814       1.32573895       0.00000000
Si      -0.22379202      -0.44455410      -3.47679591       0.00000000
Si       2.98936161       0.10456551      -2.02109128       0.00000000
Si      -0.61838469       1.56972069       3.24784136       0.00000000
Si       1.25545401      -0.01501938       3.55480271       0.00000000
Si      -0.86745879      -2.55160044      -2.72725983       0.00000000
Si       3.79563516       0.62923383       0.08899415       0.00000000
