10
Lattice="16.28999089631971 0.0 0.0 0.0 16.28999089631971 0.0 0.0 0.0 34.2284985734139" Properties=species:S:1:pos:R:3:initial_magmoms:R:1 pbc="T T T"
Si      -1.72074528       0.84105270      -1.41415121       0.00000000
Si      -1.28368458      -1.03837347       1.72590253       0.00000000
Si       1.27886274       1.53526734       1.36625665       0.00000000
Si       1.31196402      -1.71126450      -1.17766638       0.00000000
Si      -2.69078220      -2.39583546       0.47398868       0.00000000
Si      -2.52967410       2.68708437       0.15625318       0.00000000
Si      -3.62364534      -0.74668473      -0.87214263       0.00000000
Si       2.95858980      -0.67090365      -2.46428213       0.00000000
Si       3.16255689       2.33598600       0.01129541       0.00000000
Si       2.72233593      -2.83296132       0.33194728       0.00000000
