10
Lattice="16.28999089631971 0.0 0.0 0.0 16.28999089631971 0.0 0.0 0.0 34.2284985734139" Properties=species:S:1:pos:R:3:initial_magmoms:R:1 pbc="T T T"
Si      -1.34365133      -1.36181142       1.37166335       0.00000000
Si       1.37023335       1.35413883       1.36943850       0.00000000
Si       1.33327134      -1.28743128      -1.48582572       0.00000000
Si      -1.39079947       1.32541956      -1.41065305       0.00000000
Si       0.15757317       2.67256998      -2.68655230       0.00000000
Si      -2.67926696      -2.72319930       0.00545945       0.00000000
Si      -2.70634634       2.71639008      -0.00511716       0.00000000
Si      -2.70217123      -0.00144981       2.72872139       0.00000000
Si       2.71808424      -2.71538010      -0.02135517       0.00000000
Si       0.01298313       2.71469592       2.72813951       0.00000000
