10
Lattice="16.28999089631971 0.0 0.0 0.0 16.28999089631971 0.0 0.0 0.0 34.2284985734139" Properties=species:S:1:pos:R:3:initial_magmoms:R:1 pbc="T T T"
Si      -1.35088083       1.35604476      -1.35603119       0.00000000
Si      -1.35562122      -1.35852084       1.35736610       0.00000000
Si       1.35909099       1.35672894       1.35726341       0.00000000
Si       1.35902583      -1.35879777      -1.36027552       0.00000000
Si      -2.67401979      -0.02609658      -2.72403893       0.00000000
Si      -0.00232947       2.68416846      -2.72704419       0.00000000
Si      -2.71384884       2.71327869       0.00044497       0.00000000
Si      -2.71365336      -0.00042354       2.71476642       0.00000000
Si       0.00133578       2.71450044       2.71500602       0.00000000
Si       0.00192222      -2.71547784       2.71466374       0.00000000
