10
Lattice="16.28999089631971 0.0 0.0 0.0 16.28999089631971 0.0 0.0 0.0 34.2284985734139" Properties=species:S:1:pos:R:3:initial_magmoms:R:1 pbc="T T T"
Si       1.34288244       1.34024346       1.36558094       0.00000000
Si       1.35184194      -1.36221867      -1.35695536       0.00000000
Si      -1.36094805       1.35412254      -1.35637347       0.00000000
Si      -1.37943720      -1.35106002       1.36944876       0.00000000
Si      -0.14266782       2.51709822       2.78301809       0.00000000
Si      -0.01299942      -2.76895791       2.62368434       0.00000000
Si       2.64249864      -0.06527403       2.77213342       0.00000000
Si       2.71262709      -0.00182448      -2.71404763       0.00000000
Si      -0.00206883       2.71358820      -2.71315768       0.00000000
Si       2.71412577       2.71430496       0.00581885       0.00000000
