10
Lattice="16.28999089631971 0.0 0.0 0.0 16.28999089631971 0.0 0.0 0.0 34.2284985734139" Properties=species:S:1:pos:R:3:initial_magmoms:R:1 pbc="T T T"
Si       1.48555026      -1.17685476      -1.41743715       0.00000000
Si       1.85556132       0.90888426       1.21418821       0.00000000
Si      -1.22559444       1.54352637      -1.40538871       0.00000000
Si      -1.29764511      -1.40225949       1.49633388       0.00000000
Si      -2.69962767      -2.54428623       0.01974985       0.00000000
Si       0.14266782      -2.51709822      -2.78301809       0.00000000
Si      -2.57455305       0.19771173      -2.77997175       0.00000000
Si       2.78516646      -2.58237225      -0.01088467       0.00000000
Si      -2.68801290       2.78052381       0.01040547       0.00000000
Si       3.64804776      -0.75932577       1.20652102       0.00000000
