10
Lattice="16.28999089631971 0.0 0.0 0.0 16.28999089631971 0.0 0.0 0.0 34.2284985734139" Properties=species:S:1:pos:R:3:initial_magmoms:R:1 pbc="T T T"
Si      -1.23116562       1.25188650      -1.47418803       0.00000000
Si      -1.42780221      -0.66697776       1.75386925       0.00000000
Si       0.73331064      -1.84265964      -1.28548621       0.00000000
Si       1.76213817       1.45152045       0.66043925       0.00000000
Si       2.91203298      -1.00955646      -1.70091773       0.00000000
Si       0.73857231      -3.44013849       0.48231404       0.00000000
Si      -3.41453061      -1.07580789       0.35330676       0.00000000
Si       3.61540260       0.04748535       0.42573430       0.00000000
Si      -3.44504178       1.00589121      -0.79564189       0.00000000
Si      -0.39723165      -2.72909628       2.45771026       0.00000000
