10
Lattice="16.28999089631971 0.0 0.0 0.0 16.28999089631971 0.0 0.0 0.0 34.2284985734139" Properties=species:S:1:pos:R:3:initial_magmoms:R:1 pbc="T T T"
Si       0.36235476       2.18381201      -0.86317476       0.00000000
Si      -0.45708111      -1.50097689      -1.80552008       0.00000000
Si      -1.65496626       0.60567849       1.72631529       0.00000000
Si       0.44152416      -1.78613334       1.73360596       0.00000000
Si       2.70865233      -1.28505294       1.30222396       0.00000000
Si      -3.29662359      -0.91320111       0.80437017       0.00000000
Si      -2.60623710      -2.18566188      -1.06108405       0.00000000
Si       1.93315059       2.94279569       0.76298789       0.00000000
Si       0.93354732       1.54949244      -3.12913686       0.00000000
Si      -0.69066342      -0.08558766      -3.67562937       0.00000000
