10
Lattice="16.28999089631971 0.0 0.0 0.0 16.28999089631971 0.0 0.0 0.0 34.2284985734139" Properties=species:S:1:pos:R:3:initial_magmoms:R:1 pbc="T T T"
Si      -1.31662296       2.01974564      -0.13284088       0.00000000
Si      -1.64165733      -1.51887960      -0.92194512       0.00000000
Si       1.65496626      -0.60567849      -1.72631529       0.00000000
Si       1.03439871       0.07846893       2.26178622       0.00000000
Si       2.09649042      -2.39181183       0.00729067       0.00000000
Si      -2.92089474       0.40221639      -1.35082845       0.00000000
Si       2.01732102       1.57813352      -2.58949005       0.00000000
Si      -0.68299083      -0.93463875       3.60416164       0.00000000
Si      -1.67979222       1.53055694      -3.06892890       0.00000000
Si       0.11784186       2.98931993      -2.49885293       0.00000000
