10
Lattice="16.28999089631971 0.0 0.0 0.0 16.28999089631971 0.0 0.0 0.0 34.2284985734139" Properties=species:S:1:pos:R:3:initial_magmoms:R:1 pbc="T T T"
Si      -0.46226133      -0.60792881      -2.28909435       0.00000000
Si       2.01258619       0.80818437       1.11870855       0.00000000
Si      -0.80220105      -1.94554958       1.27328111       0.00000000
Si      -1.68065559       1.84084005       0.17915216       0.00000000
Si      -2.03642919      -0.55510034       2.70173299       0.00000000
Si       0.71474543       2.15342886       2.69746127       0.00000000
Si      -3.43665243       0.75356400       1.26528875       0.00000000
Si      -0.57772485       3.53934948       1.33168523       0.00000000
Si      -2.74533741      -2.76632123      -0.05366409       0.00000000
Si      -1.88863002       1.24741164      -3.25526272       0.00000000
