10
Lattice="16.28999089631971 0.0 0.0 0.0 16.28999089631971 0.0 0.0 0.0 34.2284985734139" Properties=species:S:1:pos:R:3:initial_magmoms:R:1 pbc="T T T"
Si      -1.35622395       1.35695211       1.36017284       0.00000000
Si       1.35848896      -1.35659083       1.36058358       0.00000000
Si      -1.36829484      -1.35709939      -1.35850933       0.00000000
Si       1.38287978       1.35142980      -1.36278105       0.00000000
Si      -2.71226871      -2.71182466       0.00335439       0.00000000
Si       2.71401241      -2.71164547      -0.00034229       0.00000000
Si      -2.71127502       2.71441410      -0.00188257       0.00000000
Si      -2.71345788       0.00014498       2.71757316       0.00000000
Si       2.71849542       2.71281768       0.00342285       0.00000000
Si       0.00102627      -2.71376317       2.71784699       0.00000000
