10
Lattice="16.28999089631971 0.0 0.0 0.0 16.28999089631971 0.0 0.0 0.0 34.2284985734139" Properties=species:S:1:pos:R:3:initial_magmoms:R:1 pbc="T T T"
Si       1.34400645       1.36430705      -1.39008856       0.00000000
Si      -1.36832742      -1.35154228      -1.38957513       0.00000000
Si      -1.50058593       1.20026675       1.45936708       0.00000000
Si       1.41126786      -1.48480485       1.53624433       0.00000000
Si       2.68648164       2.72318627       0.00379937       0.00000000
Si       2.70783783      -2.71279392      -0.02375459       0.00000000
Si      -2.73329910       2.70119477      -0.02467876       0.00000000
Si       2.70150102       0.00691836      -2.75382116       0.00000000
Si      -2.73774627      -2.71789269      -0.01998945       0.00000000
Si      -0.01501938      -2.70916125      -2.75406076       0.00000000
