10
Lattice="16.28999089631971 0.0 0.0 0.0 16.28999089631971 0.0 0.0 0.0 34.2284985734139" Properties=species:S:1:pos:R:3:initial_magmoms:R:1 pbc="T T T"
Si       0.04668714      -0.06350494      -2.37563027       0.00000000
Si      -2.17839654       0.79504160       0.54101595       0.00000000
Si       1.94316472       1.46973267      -0.40714822       0.00000000
Si       0.56197242      -2.02084685       1.31605228       0.00000000
Si       2.05147856       1.75953177       2.03649412       0.00000000
Si       1.83527442      -1.81969793      -2.48985083       0.00000000
Si       2.86909973      -1.96827902       1.71905884       0.00000000
Si      -3.55602555      -0.95924384       1.26186853       0.00000000
Si      -0.00123804       2.25535050       3.19146699       0.00000000
Si      -0.40721742      -1.75764932       3.46827301       0.00000000
