10
Lattice="16.28999089631971 0.0 0.0 0.0 16.28999089631971 0.0 0.0 0.0 34.2284985734139" Properties=species:S:1:pos:R:3:initial_magmoms:R:1 pbc="T T T"
Si       2.13931683      -0.14066415       0.93775870       0.00000000
Si      -0.03784167      -1.60097305      -1.71269234       0.00000000
Si      -0.91443915       1.93012065      -1.00898824       0.00000000
Si      -1.02859947      -0.09008370       2.14362938       0.00000000
Si       1.75681134      -2.01374048       2.34455078       0.00000000
Si       2.35473579       2.11396959       1.66501202       0.00000000
Si      -1.41547068      -3.35525849      -0.99183976       0.00000000
Si      -3.22807527       1.45963287      -1.56342177       0.00000000
Si       0.37727640       2.39583546      -3.05568246       0.00000000
Si      -3.22815672       0.72863541       2.07773948       0.00000000
