10
Lattice="16.28999089631971 0.0 0.0 0.0 16.28999089631971 0.0 0.0 0.0 34.2284985734139" Properties=species:S:1:pos:R:3:initial_magmoms:R:1 pbc="T T T"
Si      -2.29636872       0.37337592      -0.06345967       0.00000000
Si       0.60939261       2.23662938       0.36781965       0.00000000
Si       1.08463707      -1.49680146       1.44683944       0.00000000
Si       1.26294741      -0.46841376      -1.93493811       0.00000000
Si      -2.04964038       1.91128550      -1.83639420       0.00000000
Si       2.97034208       1.65525557       0.35464167       0.00000000
Si       2.73346919      -2.35813521       0.08341490       0.00000000
Si       3.60824219      -0.38719182      -0.84794307       0.00000000
Si      -2.86756128       1.00769549       2.20250243       0.00000000
Si       0.43232031      -2.63599374      -2.64620670       0.00000000
