10
Lattice="16.28999089631971 0.0 0.0 0.0 16.28999089631971 0.0 0.0 0.0 34.2284985734139" Properties=species:S:1:pos:R:3:initial_magmoms:R:1 pbc="T T T"
Si      -1.35570267       1.35596331       1.35941981       0.00000000
Si      -1.34863281      -1.35786924      -1.37007515       0.00000000
Si       1.35979632      -1.35845568       1.35945404       0.00000000
Si       1.35562122       1.35938421      -1.37438452       0.00000000
Si       0.09023031      -2.69428455      -2.72958395       0.00000000
Si      -2.71371852       2.71329498      -0.00112954       0.00000000
Si      -2.71145421      -2.71722087      -0.00290942       0.00000000
Si       2.71642822       2.71249677      -0.00119800       0.00000000
Si      -2.71350675      -0.00100998       2.71688859       0.00000000
Si       0.00100998       2.71365336       2.71678591       0.00000000
