10
Lattice="16.28999089631971 0.0 0.0 0.0 16.28999089631971 0.0 0.0 0.0 34.2284985734139" Properties=species:S:1:pos:R:3:initial_magmoms:R:1 pbc="T T T"
Si      -1.14640875       1.30505706      -1.50738969       0.00000000
Si       0.61111935       1.85271057       1.40942767       0.00000000
Si      -1.84099806      -0.94537386       1.33279002       0.00000000
Si       1.56094038      -1.41273396      -1.42890370       0.00000000
Si       0.51903198      -0.04492782       2.98968988       0.00000000
Si       2.56816737       2.37812823      -0.09176666       0.00000000
Si      -2.50802469       2.60659548      -0.20663756       0.00000000
Si      -2.49393384      -0.05527197      -2.82624871       0.00000000
Si      -3.55540653       0.95653251       1.13553107       0.00000000
Si       0.21727602       2.65875606      -2.82902122       0.00000000
