10
Lattice="16.28999089631971 0.0 0.0 0.0 16.28999089631971 0.0 0.0 0.0 34.2284985734139" Properties=species:S:1:pos:R:3:initial_magmoms:R:1 pbc="T T T"
Si      -2.14558848       0.85180410       0.06349390       0.00000000
Si       0.80627355       0.52466832       2.11008543       0.00000000
Si       1.18917000       1.19180898      -1.64817158       0.00000000
Si      -0.08086356      -2.30223312      -0.59619232       0.00000000
Si      -1.45828080      -1.33786512      -2.77168845       0.00000000
Si       2.09925062      -2.37946401      -1.47668671       0.00000000
Si      -0.99919602      -0.42655365       3.34683023       0.00000000
Si      -3.21315363      -0.54911961      -1.45570463       0.00000000
Si      -2.98936161      -0.10456551       2.02109128       0.00000000
Si      -0.57647052       2.33243478      -2.77846570       0.00000000
