10
Lattice="16.28999089631971 0.0 0.0 0.0 16.28999089631971 0.0 0.0 0.0 34.2284985734139" Properties=species:S:1:pos:R:3:initial_magmoms:R:1 pbc="T T T"
Si       1.31292513      -1.21093344      -1.67250806       0.00000000
Si       1.95934491       0.88153335       1.20131829       0.00000000
Si      -1.62803563      -1.22227128       1.53501210       0.00000000
Si      -1.38025170       1.49351607      -1.64639170       0.00000000
Si       2.65010607      -2.64499101      -0.34136101       0.00000000
Si       2.57028507       2.73896802      -0.29768542       0.00000000
Si      -2.77072442      -2.61904104      -0.11620582       0.00000000
Si       3.66173136      -0.94949523       0.99546798       0.00000000
Si      -0.02293632      -2.55780693      -3.05314955       0.00000000
Si      -3.10294268       2.58910002      -0.31329362       0.00000000
