10
Lattice="16.28999089631971 0.0 0.0 0.0 16.28999089631971 0.0 0.0 0.0 34.2284985734139" Properties=species:S:1:pos:R:3:initial_magmoms:R:1 pbc="T T T"
Si      -2.38293378      -0.14507874      -0.10850440       0.00000000
Si       0.98443728      -1.91920635       1.04557853       0.00000000
Si       0.75536730       1.84999014      -1.32765574       0.00000000
Si      -0.50531580       1.87010829       1.50365878       0.00000000
Si      -2.57357565       2.10857760       0.33937575       0.00000000
Si       1.18781793      -0.83875581       3.17151176       0.00000000
Si       3.17639549      -1.68995718       0.23402038       0.00000000
Si       2.99635002       2.11810725      -0.56785111       0.00000000
Si      -2.73763224      -0.72783720      -2.40999570       0.00000000
Si      -0.42168294       0.78084486       3.62976316       0.00000000
