10
Lattice="16.28999089631971 0.0 0.0 0.0 16.28999089631971 0.0 0.0 0.0 34.2284985734139" Properties=species:S:1:pos:R:3:initial_magmoms:R:1 pbc="T T T"
Si       2.19195821       0.22924917      -0.81155815       0.00000000
Si      -1.39979970      -1.83738168       0.55073685       0.00000000
Si       0.20338065       1.08045054       2.12593323       0.00000000
Si      -0.98443728       1.91920635      -1.04557853       0.00000000
Si      -0.23084559      -2.42877384       2.48697564       0.00000000
Si       2.81728287       2.42339814      -0.10617686       0.00000000
Si       2.04915168       2.54195676       2.07438509       0.00000000
Si      -3.65616018      -1.12736574       0.61111596       0.00000000
Si       0.17350479      -0.55667817       3.83650341       0.00000000
Si      -3.36737106       1.77412761      -1.15408293       0.00000000
