10
Lattice="16.28999089631971 0.0 0.0 0.0 16.28999089631971 0.0 0.0 0.0 34.2284985734139" Properties=species:S:1:pos:R:3:initial_magmoms:R:1 pbc="T T T"
Si      -1.36319607      -1.35141840      -1.36804540       0.00000000
Si       1.34779028       1.36352419      -1.37150248       0.00000000
Si      -1.29656997       1.22798907       1.55999892       0.00000000
Si       1.36912597      -1.35816246       1.42301639       0.00000000
Si      -0.57194190      -2.30795091       2.61567487       0.00000000
Si       0.74670102       1.94843128       2.87249143       0.00000000
Si      -2.36442834      -0.63974088       2.62334205       0.00000000
Si       2.53528830       0.19223829       2.75827087       0.00000000
Si      -2.70783783       2.71279392       0.02375459       0.00000000
Si       2.70776520       0.00504990      -2.72972429       0.00000000
