10
Lattice="16.28999089631971 0.0 0.0 0.0 16.28999089631971 0.0 0.0 0.0 34.2284985734139" Properties=species:S:1:pos:R:3:initial_magmoms:R:1 pbc="T T T"
Si       2.13953675       0.90494208      -0.28775915       0.00000000
Si      -1.32569553      -0.18410958      -1.92343732       0.00000000
Si      -1.14523491       1.67014854       1.20080486       0.00000000
Si      -0.23515429      -1.90112445       1.37228973       0.00000000
Si       1.59365884       2.81487942      -1.48846132       0.00000000
Si      -3.31522581       0.93867867      -1.27901702       0.00000000
Si      -2.33440491       0.47833956       2.84897644       0.00000000
Si       3.31054339      -0.60118245      -1.68455650       0.00000000
Si      -2.41526847      -1.82389356       2.25278412       0.00000000
Si       1.13362925      -1.47699801       3.33810196       0.00000000
