10
Lattice="16.28999089631971 0.0 0.0 0.0 16.28999089631971 0.0 0.0 0.0 34.2284985734139" Properties=species:S:1:pos:R:3:initial_magmoms:R:1 pbc="T T T"
Si      -0.09456345      -2.17028412      -0.85331695       0.00000000
Si       2.30712731       0.05256783       0.40300657       0.00000000
Si      -0.96918984       0.26319753       2.15222074       0.00000000
Si      -0.56197242       2.02084685      -1.31605228       0.00000000
Si       3.15723725      -0.08457768      -1.88113088       0.00000000
Si      -2.33554617      -2.43840123      -1.61312158       0.00000000
Si      -3.28618170      -0.15908814       1.85326886       0.00000000
Si       0.06890670      -1.37155284       3.56181955       0.00000000
Si       2.95693541       2.08567127       1.41979891       0.00000000
Si       0.71080668      -3.78419958       0.65393583       0.00000000
