10
Lattice="16.28999089631971 0.0 0.0 0.0 16.28999089631971 0.0 0.0 0.0 34.2284985734139" Properties=species:S:1:pos:R:3:initial_magmoms:R:1 pbc="T T T"
Si       1.18920258       1.82118942      -0.76990205       0.00000000
Si      -0.41669820       0.85682142       2.15115965       0.00000000
Si      -1.79193258      -0.93991671      -1.25023084       0.00000000
Si       1.36179513      -1.66210128       1.06060485       0.00000000
Si       1.50623369      -0.33381468       2.96870780       0.00000000
Si      -2.26424484      -2.73631275       0.19654015       0.00000000
Si      -0.04828356      -3.50062326       0.76483623       0.00000000
Si       2.83803470       0.95985567      -2.13332659       0.00000000
Si       2.11236895       2.77943238       1.21052576       0.00000000
Si      -2.68382637       0.35574102       2.58254166       0.00000000
