10
Lattice="16.28999089631971 0.0 0.0 0.0 16.28999089631971 0.0 0.0 0.0 34.2284985734139" Properties=species:S:1:pos:R:3:initial_magmoms:R:1 pbc="T T T"
Si      -2.03894992       1.18293093      -0.36347263       0.00000000
Si      -0.63694552      -1.55031930       1.71532794       0.00000000
Si       0.62281068      -1.29707496      -1.98443254       0.00000000
Si       1.81186665       1.58882886       0.55402279       0.00000000
Si      -2.81171494      -1.90198782       0.93543116       0.00000000
Si       2.01760935       0.58432230       2.83870789       0.00000000
Si       0.28774167      -3.47249043      -1.13604450       0.00000000
Si       3.62798988       0.49691016      -0.52126610       0.00000000
Si       2.71904046      -0.30911904      -2.50874498       0.00000000
Si       0.84797106       3.61103688      -0.36775119       0.00000000
