10
Lattice="16.28999089631971 0.0 0.0 0.0 16.28999089631971 0.0 0.0 0.0 34.2284985734139" Properties=species:S:1:pos:R:3:initial_magmoms:R:1 pbc="T T T"
Si       1.81612323      -1.09191870      -1.07528888       0.00000000
Si      -0.96389559       2.02220802      -0.92177398       0.00000000
Si      -1.81186665      -1.58882886      -0.55402279       0.00000000
Si       0.20574270      -1.00450656       2.28468510       0.00000000
Si       1.87903521       1.97553717       0.79512847       0.00000000
Si       0.90717381      -1.89794790      -3.06276776       0.00000000
Si       2.74038525      -2.62967841       0.45756682       0.00000000
Si      -0.13204674       2.11295961      -3.20067446       0.00000000
Si       0.22762017       3.26783916       2.11032503       0.00000000
Si      -3.85081658      -0.40589793      -0.91749542       0.00000000
