10
Lattice="16.28999089631971 0.0 0.0 0.0 16.28999089631971 0.0 0.0 0.0 34.2284985734139" Properties=species:S:1:pos:R:3:initial_magmoms:R:1 pbc="T T T"
Si       1.35580041       1.35704217       1.35657884       0.00000000
Si       1.35765747      -1.35743288      -1.35712650       0.00000000
Si      -1.35742778       1.35791531      -1.35729764       0.00000000
Si      -1.35770471      -1.35769352       1.35736610       0.00000000
Si       0.00260640      -2.71326587       2.71452682       0.00000000
Si      -2.71407867       2.71469964      -0.00023960       0.00000000
Si       0.00040725       2.71719201       2.71192546       0.00000000
Si      -2.71483795      -2.71448762      -0.00010269       0.00000000
Si       2.71463076      -0.00098746      -2.71480065       0.00000000
Si      -2.71514223       0.00029333      -2.71452682       0.00000000
