10
Lattice="16.28999089631971 0.0 0.0 0.0 16.28999089631971 0.0 0.0 0.0 34.2284985734139" Properties=species:S:1:pos:R:3:initial_magmoms:R:1 pbc="T T T"
Si       1.33677369       1.34298018       1.37567835       0.00000000
Si      -1.35619951       1.35167904      -1.36085741       0.00000000
Si       1.35586557      -1.36316349      -1.35890638       0.00000000
Si      -1.35645201      -1.38158748       1.40193163       0.00000000
Si       2.59408476      -0.13613553       2.75063791       0.00000000
Si      -2.71278089       2.70894555       0.00030806       0.00000000
Si       0.00092853       2.70985779      -2.71627248       0.00000000
Si       2.71770957       2.71057455       0.00222485       0.00000000
Si      -2.71440298      -0.00475668      -2.71668322       0.00000000
Si      -2.71033739      -2.72119563       0.00280674       0.00000000
