10
Lattice="16.28999089631971 0.0 0.0 0.0 16.28999089631971 0.0 0.0 0.0 34.2284985734139" Properties=species:S:1:pos:R:3:initial_magmoms:R:1 pbc="T T T"
Si      -1.80902961      -1.14391638      -1.04513356       0.00000000
Si       1.31437331      -1.15320168       1.63283817       0.00000000
Si       1.89301040       0.76274667      -1.30150516       0.00000000
Si      -1.30252885       1.61244936       1.46415907       0.00000000
Si      -1.57184721       2.08823139      -2.17919281       0.00000000
Si       0.57073481       1.52749701      -3.07515849       0.00000000
Si      -1.42740864       3.41651799      -0.27108986       0.00000000
Si       2.75794424       2.51572986       0.02426802       0.00000000
Si       3.10830956      -2.04628464       0.42166111       0.00000000
Si      -0.23399933      -2.50035210       2.90873742       0.00000000
