10
Lattice="16.28999089631971 0.0 0.0 0.0 16.28999089631971 0.0 0.0 0.0 34.2284985734139" Properties=species:S:1:pos:R:3:initial_magmoms:R:1 pbc="T T T"
Si       1.35747828      -1.35544203      -1.35257411       0.00000000
Si      -1.35775521      -1.35558864       1.35743456       0.00000000
Si       1.35692442       1.35938421       1.35774261       0.00000000
Si      -1.36035184       1.36205577      -1.36058358       0.00000000
Si       0.00979029      -2.70373275      -2.71583093       0.00000000
Si       2.70694188      -0.01298313      -2.71433857       0.00000000
Si       2.71484253      -2.71070487       0.00071880       0.00000000
Si      -2.71617768      -2.71230129       0.00013691       0.00000000
Si      -0.00026064      -2.71321353       2.71534831       0.00000000
Si       2.71464705       0.00167787       2.71435568       0.00000000
