10
Lattice="16.28999089631971 0.0 0.0 0.0 16.28999089631971 0.0 0.0 0.0 34.2284985734139" Properties=species:S:1:pos:R:3:initial_magmoms:R:1 pbc="T T T"
Si      -0.53470296       1.72026702      -1.53056240       0.00000000
Si       2.29301298      -0.53450748       0.42696653       0.00000000
Si      -1.07300601       0.37768365       2.14017230       0.00000000
Si      -1.10682405      -1.76733468      -1.23633406       0.00000000
Si      -2.71762975       2.00511234      -0.51489959       0.00000000
Si      -3.41830079       0.29646171       1.05317726       0.00000000
Si       1.11780351       0.63840510       3.35412091       0.00000000
Si       2.20926609      -1.31551524       2.60136735       0.00000000
Si       2.93294934      -2.13449499      -1.12026516       0.00000000
Si       1.11083139       3.40694666      -1.36400643       0.00000000
