10
Lattice="16.28999089631971 0.0 0.0 0.0 16.28999089631971 0.0 0.0 0.0 34.2284985734139" Properties=species:S:1:pos:R:3:initial_magmoms:R:1 pbc="T T T"
Si      -1.05417477      -1.16369244      -1.72689718       0.00000000
Si       1.68741594      -1.61816715       0.33075017       0.00000000
Si       1.02931623       2.09627865      -0.48091067       0.00000000
Si      -1.89138303       0.21190032       1.55787675       0.00000000
Si       0.41194152      -2.18279484       2.29081200       0.00000000
Si       0.61377462      -1.70220726      -3.16124321       0.00000000
Si       0.62397216       2.24332848      -2.82398962       0.00000000
Si      -3.16727610       1.83124035       0.23727208       0.00000000
Si      -1.77526791      -3.17102769      -0.80861450       0.00000000
Si      -0.90934038      -0.60460335       3.56154572       0.00000000
