10
Lattice="10.86 0.0 0.0 0.0 10.86 0.0 0.0 0.0 10.86" Properties=species:S:1:pos:R:3:initial_magmoms:R:1 pbc="T T T"
Si       1.19973678       1.17864666       1.35866202       0.00000000
Si      -1.51526322       1.17864666      -1.35633798       0.00000000
Si       1.19973678      -1.53635334      -1.35633798       0.00000000
Si      -1.21187826      -1.63213854       1.55050392       0.00000000
Si       2.55723678       2.53614666       0.00116202       0.00000000
Si       2.34182868       0.04499298       2.81490114       0.00000000
Si      -0.15776322       2.53614666      -2.71383798       0.00000000
Si      -0.15776322       2.53614666       2.71616202       0.00000000
Si       2.55723678      -0.17885334      -2.71383798       0.00000000
Si      -2.75619198      -0.46213644       2.61048336       0.00000000
