10
Lattice="16.28999089631971 0.0 0.0 0.0 16.28999089631971 0.0 0.0 0.0 34.54679606040008" Properties=species:S:1:pos:R:3:initial_magmoms:R:1 pbc="T T T"
Si       0.72285246       1.97823659      -0.96993639       0.00000000
Si       0.88373250       0.26540010       2.13264401       0.00000000
Si       1.57205016      -1.48065888      -0.98814256       0.00000000
Si      -2.41013808      -0.18749352      -0.00449109       0.00000000
Si      -2.23834374      -1.95380193       1.56956546       0.00000000
Si       0.82878633      -1.29288405      -3.20518444       0.00000000
Si       3.07823985       0.86171347       1.59889571       0.00000000
Si      -0.03932406      -3.19834164       1.60507959       0.00000000
Si      -1.22298804      -0.06721547      -3.41129074       0.00000000
Si      -0.53193366       2.09860340      -2.91302202       0.00000000
