10
Lattice="16.28999089631971 0.0 0.0 0.0 16.28999089631971 0.0 0.0 0.0 34.54679606040008" Properties=species:S:1:pos:R:3:initial_magmoms:R:1 pbc="T T T"
Si      -1.34187246      -1.37114559      -1.37454869       0.00000000
Si       1.45249785      -1.20783834       1.41569395       0.00000000
Si       1.37147139       1.34359920      -1.37921251       0.00000000
Si      -1.40747229       1.33968960       1.52368729       0.00000000
Si       0.03060891      -2.57415720       2.73721328       0.00000000
Si      -2.69064536       2.70321147      -0.00145097       0.00000000
Si       2.71551042       2.70438435      -0.00898217       0.00000000
Si       0.01498680       2.70153360      -2.73704054       0.00000000
Si      -2.70300622      -0.01435149      -2.73672962       0.00000000
Si      -2.70635381      -2.73784890       0.01309324       0.00000000
