10
Lattice="16.28999089631971 0.0 0.0 0.0 16.28999089631971 0.0 0.0 0.0 34.54679606040008" Properties=species:S:1:pos:R:3:initial_magmoms:R:1 pbc="T T T"
Si      -0.63526113      -1.80810855       1.34508026       0.00000000
Si       1.19539278      -1.48234113      -1.48416573       0.00000000
Si      -1.75744665       1.12700736      -1.28113410       0.00000000
Si       1.61893278       1.23781194       1.38840196       0.00000000
Si       2.67134823      -2.42553213       0.23858031       0.00000000
Si      -1.78869087       3.19137390       0.77215587       0.00000000
Si      -0.51209244       2.37840516      -2.88230990       0.00000000
Si       3.51722277      -0.41673078       1.33606354       0.00000000
Si       2.48420871      -0.22359654      -2.97454990       0.00000000
Si      -2.32088517      -1.19998656       2.88324266       0.00000000
