10
Lattice="16.28999089631971 0.0 0.0 0.0 16.28999089631971 0.0 0.0 0.0 34.54679606040008" Properties=species:S:1:pos:R:3:initial_magmoms:R:1 pbc="T T T"
Si       1.28881593       1.25874459      -1.49038416       0.00000000
Si      -1.19539278       1.48234113       1.48416573       0.00000000
Si      -1.47988134      -1.37135736      -1.37299408       0.00000000
Si       1.47595545      -0.94319100       1.72274604       0.00000000
Si      -1.83065391      -0.32576742       2.82924599       0.00000000
Si      -0.21686877       2.54086533      -2.79767020       0.00000000
Si       2.53522899      -0.20215890      -2.80471775       0.00000000
Si       2.32182999       1.06561035       2.82022927       0.00000000
Si       2.56051107       2.81724147      -0.17922888       0.00000000
Si      -2.95283943       2.60934849       0.20303163       0.00000000
