10
Lattice="16.28999089631971 0.0 0.0 0.0 16.28999089631971 0.0 0.0 0.0 34.54679606040008" Properties=species:S:1:pos:R:3:initial_magmoms:R:1 pbc="T T T"
Si       1.16921475       1.58627133      -1.39375672       0.00000000
Si      -0.72022977       1.04177808       2.11381599       0.00000000
Si      -1.61893278      -1.23781194      -1.38840196       0.00000000
Si       1.89828999      -1.65454272      -0.05233843       0.00000000
Si       2.13697107       0.09708840      -3.05179658       0.00000000
Si       3.41713701       1.48276467      -0.32494735       0.00000000
Si      -0.20266389      -0.69043536       3.67522841       0.00000000
Si      -3.10153455       1.29134088       1.71835860       0.00000000
Si      -2.25419391      -3.04592049      -0.04332171       0.00000000
Si      -0.46209843       2.36649717      -3.09560194       0.00000000
