10
Lattice="16.28999089631971 0.0 0.0 0.0 16.28999089631971 0.0 0.0 0.0 34.54679606040008" Properties=species:S:1:pos:R:3:initial_magmoms:R:1 pbc="T T T"
Si      -1.11236265      -1.20728448      -1.61278353       0.00000000
Si      -1.42604289       1.80369396       0.46558743       0.00000000
Si       0.04212594      -1.86680142       1.48482212       0.00000000
Si       2.15757792       0.49146930      -0.96713810       0.00000000
Si       2.10787713      -2.75915133       0.63928882       0.00000000
Si       2.92881168      -1.68689466      -1.34411295       0.00000000
Si       3.41966196       1.46240217       0.73456894       0.00000000
Si      -0.99562851      -0.05869287      -3.69678562       0.00000000
Si      -3.38621207      -1.52109504      -0.94302442       0.00000000
Si       0.45274797      -0.96280416       3.72943236       0.00000000
