10
Lattice="16.28999089631971 0.0 0.0 0.0 16.28999089631971 0.0 0.0 0.0 34.54679606040008" Properties=species:S:1:pos:R:3:initial_magmoms:R:1 pbc="T T T"
Si       0.40443183       1.74288339      -1.48026194       0.00000000
Si       1.49837049      -1.79183484      -0.41207441       0.00000000
Si      -2.07047529      -0.94920201      -0.75733529       0.00000000
Si       1.62597006       0.88255962       2.36652595       0.00000000
Si      -1.67143545      -2.65829994       0.87759275       0.00000000
Si      -1.85476311      -0.92613537       2.65711825       0.00000000
Si       2.50761744       2.54705553      -0.72320303       0.00000000
Si       0.48115773      -3.63674250       0.77267407       0.00000000
Si      -0.13118337       0.17158257       3.87460641       0.00000000
Si       3.87275202      -1.05186159      -0.23422741       0.00000000
