10
Lattice="16.28999089631971 0.0 0.0 0.0 16.28999089631971 0.0 0.0 0.0 34.54679606040008" Properties=species:S:1:pos:R:3:initial_magmoms:R:1 pbc="T T T"
Si      -2.11243833       0.60605316       0.93749693       0.00000000
Si       0.39903984      -1.70909793       1.63492804       0.00000000
Si       2.07047529       0.94920201       0.75733529       0.00000000
Si      -0.41062203      -0.90399726      -2.24461023       0.00000000
Si       0.21571218       0.02306664       3.41445354       0.00000000
Si       3.56884578      -0.84263283       0.34526087       0.00000000
Si       2.47490712       2.69208540      -0.72292666       0.00000000
Si      -1.21311630      -3.48249249       0.99024992       0.00000000
Si      -0.45274797       0.96280416      -3.72943236       0.00000000
Si       1.65512916      -1.79634717      -3.09014354       0.00000000
