10
Lattice="16.28999089631971 0.0 0.0 0.0 16.28999089631971 0.0 0.0 0.0 34.54679606040008" Properties=species:S:1:pos:R:3:initial_magmoms:R:1 pbc="T T T"
Si       1.83744684       1.19586519       0.89959907       0.00000000
Si      -0.43311852       1.31227353      -1.94885495       0.00000000
Si       1.22313465      -2.04173063      -0.59786719       0.00000000
Si      -1.01264667       0.75422700       2.12514735       0.00000000
Si      -2.91138857      -0.19930815      -0.34830099       0.00000000
Si      -3.05423558      -0.26428896       1.99877510       0.00000000
Si       0.79750953       3.35507211       1.26804086       0.00000000
Si      -1.47633989       3.04126155       1.93779997       0.00000000
Si       1.56555045       1.88879292      -3.04105252       0.00000000
Si       0.49466214      -2.70966950      -2.79697927       0.00000000
