10
Lattice="16.28999089631971 0.0 0.0 0.0 16.28999089631971 0.0 0.0 0.0 34.54679606040008" Properties=species:S:1:pos:R:3:initial_magmoms:R:1 pbc="T T T"
Si      -2.04158890      -1.01851596      -0.12637225       0.00000000
Si      -0.46369322       2.28703455      -0.18734738       0.00000000
Si       1.24925892       0.15561837       2.03425468       0.00000000
Si       1.01264667      -0.75422700      -2.12514735       0.00000000
Si       2.85009351       0.44163819      -1.22554828       0.00000000
Si      -1.89874189      -0.95353515      -2.47344834       0.00000000
Si       1.81015620       2.60084511      -0.85710649       0.00000000
Si       2.57969580      -1.79208896       1.91928287       0.00000000
Si      -1.94785624      -3.30435224       0.28708404       0.00000000
Si      -1.48232062       3.13724223       1.81139317       0.00000000
