10
Lattice="16.28999089631971 0.0 0.0 0.0 16.28999089631971 0.0 0.0 0.0 34.54679606040008" Properties=species:S:1:pos:R:3:initial_magmoms:R:1 pbc="T T T"
Si       2.01124485      -1.03482225       0.69408007       0.00000000
Si       0.45867753       1.66742811      -1.64404840       0.00000000
Si      -1.04273919      -2.03589162      -0.77509235       0.00000000
Si      -1.37494116       1.07831655       1.71162197       0.00000000
Si       0.90675027      -2.54277126       2.18857530       0.00000000
Si      -2.89022067       2.07233235       0.24486783       0.00000000
Si      -1.36774098       3.15019278      -1.23995430       0.00000000
Si       3.34335960       0.53879175       1.80600387       0.00000000
Si      -0.52517331      -3.76810506       0.78632006       0.00000000
Si       0.14015916       0.86253921      -3.86537408       0.00000000
