10
Lattice="16.28999089631971 0.0 0.0 0.0 16.28999089631971 0.0 0.0 0.0 34.54679606040008" Properties=species:S:1:pos:R:3:initial_magmoms:R:1 pbc="T T T"
Si      -1.35653346       1.35294544      -1.36304460       0.00000000
Si       1.36003581      -1.36132272      -1.36259549       0.00000000
Si       1.35721764       1.35886849       1.38249446       0.00000000
Si      -1.37161800      -1.35127179       1.38664008       0.00000000
Si       2.58406641      -0.22209786       2.79044992       0.00000000
Si      -2.71150308       2.71287863       0.00020728       0.00000000
Si       2.71868697       2.70898532      -0.00152006       0.00000000
Si      -2.71583622      -2.71494027      -0.00062184       0.00000000
Si       2.71614573      -2.71515204      -0.00784213       0.00000000
Si       0.00164529       2.71240622      -2.71990532       0.00000000
