10
Lattice="16.28999089631971 0.0 0.0 0.0 16.28999089631971 0.0 0.0 0.0 34.54679606040008" Properties=species:S:1:pos:R:3:initial_magmoms:R:1 pbc="T T T"
Si      -0.25746345       2.21907823       0.84539512       0.00000000
Si       1.51876557      -0.08990451      -2.11937803       0.00000000
Si      -2.44939698      -0.87120549      -0.30235373       0.00000000
Si       0.85059864      -1.16092314       2.23027331       0.00000000
Si      -1.48339998      -2.19413268      -2.11941258       0.00000000
Si       1.43047377       0.77243922       3.45181415       0.00000000
Si      -0.15941394      -0.91419480      -3.71440449       0.00000000
Si       2.04160941       3.18214466       0.78200171       0.00000000
Si      -0.62130060       1.99810780       3.24570785       0.00000000
Si      -0.01945026      -3.79107396      -1.06366190       0.00000000
