10
Lattice="16.28999089631971 0.0 0.0 0.0 16.28999089631971 0.0 0.0 0.0 34.54679606040008" Properties=species:S:1:pos:R:3:initial_magmoms:R:1 pbc="T T T"
Si       1.35695700      -1.35531171       1.35990084       0.00000000
Si      -1.35791811      -1.34987085      -1.36667547       0.00000000
Si      -1.35865116       1.35801585       1.35810441       0.00000000
Si       1.36624230       1.34972424      -1.39222630       0.00000000
Si       2.71314837      -2.71561793       0.00089822       0.00000000
Si      -0.00102627      -2.71346277       2.71638155       0.00000000
Si       2.71399545       0.00135207       2.71686520       0.00000000
Si      -2.71762812      -2.71378368      -0.00431835       0.00000000
Si      -2.71464705       2.71709055      -0.00196917       0.00000000
Si       2.71785618       2.71409319      -0.00124369       0.00000000
