10
Lattice="16.28999089631971 0.0 0.0 0.0 16.28999089631971 0.0 0.0 0.0 34.54679606040008" Properties=species:S:1:pos:R:3:initial_magmoms:R:1 pbc="T T T"
Si      -0.48089709       1.93901499       1.15030531       0.00000000
Si      -1.10993544      -0.14309136      -2.03159457       0.00000000
Si      -0.88824483      -1.84111861       1.19514708       0.00000000
Si       2.15278866      -0.97406055      -0.23920215       0.00000000
Si       1.45182996      -2.70044803      -1.72861900       0.00000000
Si      -3.24363222      -0.72459549      -1.37368502       0.00000000
Si      -0.27968301      -3.57575993      -0.37500568       0.00000000
Si       2.43820575      -1.71160496       2.04465327       0.00000000
Si       0.37607094      -1.77771630       3.16994668       0.00000000
Si       0.18173124      -1.54832377      -3.40648873       0.00000000
