10
Lattice="16.28999089631971 0.0 0.0 0.0 16.28999089631971 0.0 0.0 0.0 34.54679606040008" Properties=species:S:1:pos:R:3:initial_magmoms:R:1 pbc="T T T"
Si       1.34644018       1.33705062      -1.36495504       0.00000000
Si      -1.35803087       1.35470898       1.35641161       0.00000000
Si       1.35518791      -1.36014984       1.35534066       0.00000000
Si      -1.35148423      -1.35596331      -1.39099297       0.00000000
Si       2.67687706      -0.11069055      -2.70918199       0.00000000
Si      -2.71060780       2.71050939      -0.00487110       0.00000000
Si       0.00671800       2.51167365      -2.89942439       0.00000000
Si       0.00030788       2.71251306       2.71306505       0.00000000
Si      -2.71446853      -0.00223173       2.71323779       0.00000000
Si       2.71502824      -0.00224802       2.71285777       0.00000000
