10
Lattice="16.28999089631971 0.0 0.0 0.0 16.28999089631971 0.0 0.0 0.0 34.54679606040008" Properties=species:S:1:pos:R:3:initial_magmoms:R:1 pbc="T T T"
Si      -0.85861332      -0.45201492      -2.10559385       0.00000000
Si       2.31586785      -0.05685210      -0.15660071       0.00000000
Si      -1.44392931       1.49413509       1.12149327       0.00000000
Si      -0.07879473      -2.10478203       1.61046889       0.00000000
Si      -3.05510805       0.42308388      -1.90750241       0.00000000
Si      -3.54711492       0.68996295       0.36443436       0.00000000
Si       2.98167273       2.18336499       0.06660626       0.00000000
Si      -0.12070890      -2.69083107      -2.58199443       0.00000000
Si       3.05628093      -1.57055148       1.54745550       0.00000000
Si      -1.03234617       3.71861604       0.29817356       0.00000000
