10
Lattice="16.28999089631971 0.0 0.0 0.0 16.28999089631971 0.0 0.0 0.0 34.54679606040008" Properties=species:S:1:pos:R:3:initial_magmoms:R:1 pbc="T T T"
Si      -1.14507297      -0.12323385      -1.98022346       0.00000000
Si      -0.73790442       2.23881615       0.47640058       0.00000000
Si      -0.55750896      -1.89915336       1.37430686       0.00000000
Si       2.28998304      -0.00066789      -0.78701100       0.00000000
Si       0.97182882      -1.33516098       3.10752059       0.00000000
Si      -0.41635611       1.77259635      -3.14849311       0.00000000
Si      -3.42524943      -0.03538188      -1.40418986       0.00000000
Si      -0.09765855       3.41272242      -1.44799522       0.00000000
Si       0.12070890       2.69083107       2.58199443       0.00000000
Si       3.09088089      -2.10732327      -0.05720953       0.00000000
