10
Lattice="16.28999089631971 0.0 0.0 0.0 16.28999089631971 0.0 0.0 0.0 34.54679606040008" Properties=species:S:1:pos:R:3:initial_magmoms:R:1 pbc="T T T"
Si      -1.75715343      -0.71097705       1.50808046       0.00000000
Si       1.94206122      -1.61293806      -0.00836033       0.00000000
Si       1.04868504       2.06101080       1.40473366       0.00000000
Si      -1.62597006      -0.88255962      -2.36652595       0.00000000
Si      -0.41216958      -1.99770786       2.95158114       0.00000000
Si       0.88164738       1.66449591      -3.08972898       0.00000000
Si       0.96163128      -3.29791050       1.53807055       0.00000000
Si       2.32554411       0.72883089       2.92832768       0.00000000
Si      -0.12759957      -2.67439446      -2.77860036       0.00000000
Si      -3.48073317      -1.80869499       0.29059230       0.00000000
