10
Lattice="16.28999089631971 0.0 0.0 0.0 16.28999089631971 0.0 0.0 0.0 34.54679606040008" Properties=species:S:1:pos:R:3:initial_magmoms:R:1 pbc="T T T"
Si      -1.35746199      -1.35718506       1.35654980       0.00000000
Si      -1.35715248       1.35703845      -1.35748256       0.00000000
Si       1.35716877       1.35707103       1.35772439       0.00000000
Si       1.35742941      -1.35754344      -1.35751711       0.00000000
Si      -2.70972747      -0.00117288       2.71537969       0.00000000
Si       2.71399545      -0.00140094       2.71330688       0.00000000
Si      -0.00143352       2.71327869      -2.71420510       0.00000000
Si       2.71463076      -0.00047241      -2.71365235       0.00000000
Si      -0.00043983       2.71702539       2.71178682       0.00000000
Si       2.71474479       2.71461447      -0.00038001       0.00000000
