10
Lattice="16.28999089631971 0.0 0.0 0.0 16.28999089631971 0.0 0.0 0.0 34.54679606040008" Properties=species:S:1:pos:R:3:initial_magmoms:R:1 pbc="T T T"
Si       1.45290510      -1.24335054       1.35817350       0.00000000
Si      -1.33569855      -1.36557441      -1.37009215       0.00000000
Si       1.37661903       1.35221661      -1.36048814       0.00000000
Si      -1.50312717       1.31616684       1.40640085       0.00000000
Si      -2.67108759      -2.71155195      -0.00639116       0.00000000
Si       2.39072040       0.29023893       2.96045480       0.00000000
Si      -2.70901071       2.70490563      -0.01910439       0.00000000
Si      -2.69252523      -0.00710244      -2.72567464       0.00000000
Si       0.02220327       2.70865233      -2.72657286       0.00000000
Si       0.02101410      -2.72241738      -2.72605465       0.00000000
