10
Lattice="16.28999089631971 0.0 0.0 0.0 16.28999089631971 0.0 0.0 0.0 34.54679606040008" Properties=species:S:1:pos:R:3:initial_magmoms:R:1 pbc="T T T"
Si       1.86986394       1.27057113       0.72627770       0.00000000
Si      -1.01297736      -1.14002307       1.82991026       0.00000000
Si       1.03250907      -1.78271244      -1.28261961       0.00000000
Si      -1.63354491       0.88949916      -1.62090203       0.00000000
Si       2.83872798       1.45065708      -1.45991387       0.00000000
Si      -0.63501678      -3.47490135      -0.87862916       0.00000000
Si      -2.34509211      -2.71363707       0.71798646       0.00000000
Si       0.82298709       2.76213240      -2.27653149       0.00000000
Si       0.72749511      -2.55236607       2.80419955       0.00000000
Si       0.19740222      -1.48678830      -3.62378820       0.00000000
