10
Lattice="16.28999089631971 0.0 0.0 0.0 16.28999089631971 0.0 0.0 0.0 34.54679606040008" Properties=species:S:1:pos:R:3:initial_magmoms:R:1 pbc="T T T"
Si      -0.31851837      -0.80488890      -2.22132568       0.00000000
Si      -0.45867753      -1.66742811       1.64404840       0.00000000
Si      -1.82641851       1.48276467       0.40409410       0.00000000
Si       2.26411452       0.90088587      -0.00076003       0.00000000
Si       2.88635994       0.56136969      -2.28102258       0.00000000
Si      -3.34889820       0.40490424       1.88891622       0.00000000
Si      -1.83361869      -0.58911156       3.35567036       0.00000000
Si       1.55256732      -2.70225036       2.33812846       0.00000000
Si       2.25013770       3.24508203      -0.45349605       0.00000000
Si      -1.24654338       3.41612703       1.62563494       0.00000000
