10
Lattice="16.28999089631971 0.0 0.0 0.0 16.28999089631971 0.0 0.0 0.0 34.54679606040008" Properties=species:S:1:pos:R:3:initial_magmoms:R:1 pbc="T T T"
Si      -0.41158314      -2.22448095       0.82331970       0.00000000
Si      -2.24472942       0.43236918      -0.93183125       0.00000000
Si       0.15573240       0.17884791      -2.46729901       0.00000000
Si      -0.26217126       0.14079447       2.46111513       0.00000000
Si       2.62410723       0.27447021      -0.77564510       0.00000000
Si      -2.14917228      -0.96299964      -2.88711191       0.00000000
Si       1.03234617      -3.71861604      -0.29817356       0.00000000
Si      -3.77853066      -1.08779733       0.03002118       0.00000000
Si      -2.51476875      -3.02865309       0.06626079       0.00000000
Si      -0.12289176       2.47247991      -3.08862348       0.00000000
