10
Lattice="16.28999089631971 0.0 0.0 0.0 16.28999089631971 0.0 0.0 0.0 34.54679606040008" Properties=species:S:1:pos:R:3:initial_magmoms:R:1 pbc="T T T"
Si       1.51384599       1.32126465       1.20105458       0.00000000
Si      -1.80558360      -1.12612770       0.99861024       0.00000000
Si       1.69109748      -1.29717270      -1.08052074       0.00000000
Si      -1.19444796       1.28357774      -1.67120219       0.00000000
Si       0.80255943       0.23631481      -2.65671920       0.00000000
Si      -1.06231977      -1.31390253       3.21565212       0.00000000
Si       2.59514361       2.62680227      -0.49301760       0.00000000
Si       0.22217931       2.72649707       2.57594874       0.00000000
Si      -1.86976620       3.23090063      -0.46348007       0.00000000
Si      -3.49352082       0.32051131      -1.60780879       0.00000000
