10
Lattice="16.28999089631971 0.0 0.0 0.0 16.28999089631971 0.0 0.0 0.0 34.54679606040008" Properties=species:S:1:pos:R:3:initial_magmoms:R:1 pbc="T T T"
Si      -1.35756787       1.35682668      -1.35782803       0.00000000
Si       1.35715248      -1.35793440      -1.35803531       0.00000000
Si       1.35852084       1.35785295       1.35696436       0.00000000
Si      -1.35947218      -1.35803214       1.35727528       0.00000000
Si      -0.00218286       2.71404432       2.71468875       0.00000000
Si       2.71425609      -0.00262269      -2.71503422       0.00000000
Si      -2.71477022       2.71456560      -0.00069094       0.00000000
Si       2.71495656       2.71438641      -0.00038001       0.00000000
Si       2.71500543      -0.00008145       2.71479239       0.00000000
Si       2.71480995      -2.71529865      -0.00065639       0.00000000
