10
Lattice="16.28999089631971 0.0 0.0 0.0 16.28999089631971 0.0 0.0 0.0 34.54679606040008" Properties=species:S:1:pos:R:3:initial_magmoms:R:1 pbc="T T T"
Si       0.98266167      -0.10634112      -2.14048613       0.00000000
Si      -2.24902998       0.73181196      -0.33804059       0.00000000
Si       0.27862416      -2.29363200       0.62132447       0.00000000
Si       0.72514935       1.64397051       1.64201013       0.00000000
Si      -2.86076835       0.20724138       1.82718106       0.00000000
Si       3.15496575      -0.34722135      -1.28040862       0.00000000
Si       2.57548158      -2.27918277      -0.06681354       0.00000000
Si      -2.12183766      -2.04011073       2.15679223       0.00000000
Si       0.74642409       3.56809874       0.24787340       0.00000000
Si      -1.32015789       1.66122162       2.98695220       0.00000000
