10
Lattice="16.28999089631971 0.0 0.0 0.0 16.28999089631971 0.0 0.0 0.0 34.54679606040008" Properties=species:S:1:pos:R:3:initial_magmoms:R:1 pbc="T T T"
Si       1.35148423       1.35596331       1.39099297       0.00000000
Si      -1.36383138      -1.36323842       1.38826378       0.00000000
Si       1.38839411      -1.32605976      -1.47992684       0.00000000
Si      -1.34956134       1.29336084      -1.54975977       0.00000000
Si       2.69792441       2.69301393       0.02603793       0.00000000
Si      -2.71073745       2.70210375      -0.00486074       0.00000000
Si       2.68963280      -2.72924219       0.01229867       0.00000000
Si      -2.70619254      -2.71948613       0.03870971       0.00000000
Si      -0.22659390      -2.63629964      -2.79353982       0.00000000
Si       2.70667214      -0.00418653       2.74633363       0.00000000
