10
Lattice="16.28999089631971 0.0 0.0 0.0 16.28999089631971 0.0 0.0 0.0 34.54679606040008" Properties=species:S:1:pos:R:3:initial_magmoms:R:1 pbc="T T T"
Si       0.04111596       0.32220154       2.34956346       0.00000000
Si      -0.28092105       2.20401908      -0.85427365       0.00000000
Si      -1.30495932      -1.70205318      -1.17825368       0.00000000
Si       2.40952299      -0.46140448      -0.08864713       0.00000000
Si      -2.47153509       0.91992725       2.25369605       0.00000000
Si       2.46568928      -1.90499400       1.84628545       0.00000000
Si      -2.44048635       2.78531144      -0.04947104       0.00000000
Si      -0.24705414      -3.68089722      -0.41193623       0.00000000
Si      -0.32143428       2.01314915      -3.21420115       0.00000000
Si       0.42831297      -3.38329521       1.85447305       0.00000000
