10
Lattice="16.28999089631971 0.0 0.0 0.0 16.28999089631971 0.0 0.0 0.0 34.54679606040008" Properties=species:S:1:pos:R:3:initial_magmoms:R:1 pbc="T T T"
Si      -2.25111510       0.93064770       0.15314603       0.00000000
Si      -0.86271840      -1.97426655      -1.17946282       0.00000000
Si       1.83774006       0.24229746       1.64349565       0.00000000
Si       1.94813739       0.78653007      -1.55419213       0.00000000
Si       0.15496677      -0.16513173      -2.81224896       0.00000000
Si       3.30322334      -1.55530404       0.89914996       0.00000000
Si       1.02294684      -3.39260427      -1.37123220       0.00000000
Si      -2.53488690      -3.02951646       0.56007297       0.00000000
Si       3.62026746      -0.94649787      -1.44015309       0.00000000
Si       1.84562442      -3.48164541       0.89044417       0.00000000
