10
Lattice="16.28999089631971 0.0 0.0 0.0 16.28999089631971 0.0 0.0 0.0 34.54679606040008" Properties=species:S:1:pos:R:3:initial_magmoms:R:1 pbc="T T T"
Si       1.75347189       1.08748782       1.11182016       0.00000000
Si       1.55510856      -1.33393923      -1.21224775       0.00000000
Si      -0.74041308       1.51369938      -1.70405621       0.00000000
Si      -3.13507566      -0.53423055       0.06301339       0.00000000
Si      -0.04614957       2.06580006       2.49542011       0.00000000
Si      -2.20516101      -2.45544057      -1.02192935       0.00000000
Si      -0.04559571      -3.03673293      -1.82673196       0.00000000
Si       2.42362426      -0.69936228       2.51918832       0.00000000
Si       3.34362254      -1.62795744       0.36498710       0.00000000
Si       0.18044433       0.55781847      -3.69353822       0.00000000
