10
Lattice="16.28999089631971 0.0 0.0 0.0 16.28999089631971 0.0 0.0 0.0 34.54679606040008" Properties=species:S:1:pos:R:3:initial_magmoms:R:1 pbc="T T T"
Si       1.35780408       1.35550719       1.35838078       0.00000000
Si       1.35744570      -1.35764118      -1.35713709       0.00000000
Si      -1.35795069       1.35739683      -1.35720619       0.00000000
Si      -1.35917244      -1.35780408       1.35741347       0.00000000
Si       0.00076563      -2.71322982      -2.71510331       0.00000000
Si      -2.71524978      -0.00003258      -2.71358325       0.00000000
Si      -2.71588509      -0.00096111       2.71337597       0.00000000
Si      -2.71464705      -2.71492398      -0.00010364       0.00000000
Si      -0.00047241       2.71432125      -2.71562152       0.00000000
Si       2.71516685      -0.00109143      -2.71499967       0.00000000
