10
Lattice="16.28999089631971 0.0 0.0 0.0 16.28999089631971 0.0 0.0 0.0 34.54679606040008" Properties=species:S:1:pos:R:3:initial_magmoms:R:1 pbc="T T T"
Si       0.57795291      -0.65505348       2.13316221       0.00000000
Si      -0.97715565       2.08722141       0.18855652       0.00000000
Si      -1.59532857      -1.59259185      -0.62391549       0.00000000
Si       1.68562404      -0.60812199      -1.53816241       0.00000000
Si       0.39622167      -2.50486443      -2.07795640       0.00000000
Si       2.11374153      -2.29948011       1.66781661       0.00000000
Si       3.41027892      -1.33393923      -0.08643613       0.00000000
Si      -1.42071606      -1.23157287       3.22535978       0.00000000
Si      -2.74778906      -2.16070560       1.47995102       0.00000000
Si       0.83828340       3.72913938       0.22351790       0.00000000
