10
Lattice="16.28999089631971 0.0 0.0 0.0 16.28999089631971 0.0 0.0 0.0 34.54679606040008" Properties=species:S:1:pos:R:3:initial_magmoms:R:1 pbc="T T T"
Si       0.88847264      -0.73189341       1.99287938       0.00000000
Si      -0.80857044       2.21488614      -0.29423523       0.00000000
Si      -1.85904738      -1.48890600      -0.13559625       0.00000000
Si       1.78025495       0.38882601      -1.58483515       0.00000000
Si      -1.54681695      -1.69714107      -2.65709921       0.00000000
Si      -1.48393755       1.91728413      -2.56064450       0.00000000
Si       2.90625722       2.01157065      -0.27443990       0.00000000
Si      -0.56216790      -2.07801756       3.15133083       0.00000000
Si      -2.22021297       2.61892701       1.67586601       0.00000000
Si       0.78711651       1.60741575      -3.44262470       0.00000000
