10
Lattice="16.28999089631971 0.0 0.0 0.0 16.28999089631971 0.0 0.0 0.0 34.54679606040008" Properties=species:S:1:pos:R:3:initial_magmoms:R:1 pbc="T T T"
Si       1.63649340       1.15025319      -1.26019873       0.00000000
Si      -0.93781530      -1.53358947      -1.60228130       0.00000000
Si      -1.74548979       1.30357467       1.06093270       0.00000000
Si      -1.94746950      -3.15587799      -0.24113677       0.00000000
Si       2.76478182      -2.56321521      -0.02812111       0.00000000
Si      -2.29446279      -2.27483334       1.95300057       0.00000000
Si       1.71017731      -1.06367184       3.23644930       0.00000000
Si      -2.39072040      -0.29023893      -2.96045480       0.00000000
Si       0.35717454       2.42952318      -2.93578837       0.00000000
Si       2.98577685       2.38247766       0.44686306       0.00000000
