10
Lattice="16.28999089631971 0.0 0.0 0.0 16.28999089631971 0.0 0.0 0.0 34.54679606040008" Properties=species:S:1:pos:R:3:initial_magmoms:R:1 pbc="T T T"
Si      -2.17230408       0.24088023      -0.86007752       0.00000000
Si       2.12063220      -0.74433897      -0.68240324       0.00000000
Si      -0.57948417      -1.93196142       1.21359508       0.00000000
Si       0.61672311       1.96327080       1.18353935       0.00000000
Si      -3.15496575       0.34722135       1.28040862       0.00000000
Si       3.49751678       1.13575509      -1.00786879       0.00000000
Si       3.17658258      -1.66967613       1.38926563       0.00000000
Si       2.94511797       2.29431618       0.96019419       0.00000000
Si      -0.22669164      -3.91267881      -0.08443242       0.00000000
Si      -2.87634159      -1.94641065       1.90173309       0.00000000
