10
Lattice="16.28999089631971 0.0 0.0 0.0 16.28999089631971 0.0 0.0 0.0 34.54679606040008" Properties=species:S:1:pos:R:3:initial_magmoms:R:1 pbc="T T T"
Si       2.04745263       0.36132849      -1.13551927       0.00000000
Si       0.44714910      -0.04696407       2.32949176       0.00000000
Si      -0.93134395      -2.11325283      -0.54539057       0.00000000
Si      -1.63051075       1.71530442      -0.54390506       0.00000000
Si       1.56952032       2.11473522       2.31798767       0.00000000
Si      -2.65243132       0.52683489      -2.26855118       0.00000000
Si       2.97404412       1.92098196       0.39618288       0.00000000
Si      -3.10500010      -1.41578019      -1.10511808       0.00000000
Si       1.13638551       1.29424050      -3.16435010       0.00000000
Si       0.08728345      -2.96346051      -2.54413112       0.00000000
