10
Lattice="16.28999089631971 0.0 0.0 0.0 16.28999089631971 0.0 0.0 0.0 34.54679606040008" Properties=species:S:1:pos:R:3:initial_magmoms:R:1 pbc="T T T"
Si       1.36665607      -1.75215240       0.73633082       0.00000000
Si      -0.44714910       0.04696407      -2.32949176       0.00000000
Si       1.12237123       2.16169929      -0.01150409       0.00000000
Si      -1.97912164      -0.83914677       1.37074854       0.00000000
Si      -0.38897099      -3.55459203       0.62391549       0.00000000
Si       1.88327713      -0.69976953       3.09245818       0.00000000
Si       2.52689503       1.96794603      -1.93330888       0.00000000
Si      -1.37849305      -2.06628876      -2.87488233       0.00000000
Si       1.60030354       0.40829256      -3.46501103       0.00000000
Si      -0.48012983       3.91324896      -0.14965680       0.00000000
