10
Lattice="16.28999089631971 0.0 0.0 0.0 16.28999089631971 0.0 0.0 0.0 34.54679606040008" Properties=species:S:1:pos:R:3:initial_magmoms:R:1 pbc="T T T"
Si       1.30671142       1.43417160       1.18811680       0.00000000
Si      -1.45064054      -1.34612415       1.15845145       0.00000000
Si      -0.88847264       0.73189341      -1.99287938       0.00000000
Si      -2.74752002      -0.75701259      -2.12847563       0.00000000
Si       0.02026422      -2.61594594       2.43962010       0.00000000
Si      -2.40683096      -2.65336407      -0.67370923       0.00000000
Si       2.72053518       0.08842212       2.44614599       0.00000000
Si      -2.71770932       0.12628008       2.45823047       0.00000000
Si       3.02958906       2.14951437      -0.18405023       0.00000000
Si      -0.00485417       2.84306112       2.46251427       0.00000000
