10
Lattice="16.28999089631971 0.0 0.0 0.0 16.28999089631971 0.0 0.0 0.0 34.54679606040008" Properties=species:S:1:pos:R:3:initial_magmoms:R:1 pbc="T T T"
Si      -1.41382376       1.34574948      -1.25802919       0.00000000
Si      -1.35757602      -1.32638067       1.36374936       0.00000000
Si       1.35749457       1.38559482       1.36057105       0.00000000
Si       1.27822743      -1.50309459      -1.54870955       0.00000000
Si       0.30905388       2.06109225      -2.63019622       0.00000000
Si       2.16181332       0.39832308      -2.78361107       0.00000000
Si      -2.72053518      -0.08842212      -2.44614599       0.00000000
Si       2.72210787      -2.67656103      -0.02511553       0.00000000
Si      -0.00705357      -2.68226253       2.72085190       0.00000000
Si      -2.70027096      -2.70436806      -0.00652589       0.00000000
