10
Lattice="16.28999089631971 0.0 0.0 0.0 16.28999089631971 0.0 0.0 0.0 34.54679606040008" Properties=species:S:1:pos:R:3:initial_magmoms:R:1 pbc="T T T"
Si       1.35720235      -1.35773892      -1.35713709       0.00000000
Si      -1.35767180      -1.35695700       1.35768984       0.00000000
Si      -1.35814421       1.35746199      -1.35689527       0.00000000
Si       1.35844690       1.35803214       1.35737892       0.00000000
Si       2.71190318       0.00022806      -2.71531059       0.00000000
Si       2.71258736      -0.00052128       2.71537969       0.00000000
Si      -0.00042307       2.71401174      -2.71475785       0.00000000
Si      -0.00113641      -2.71554300      -2.71379053       0.00000000
Si       2.71477022      -2.71456560       0.00069094       0.00000000
Si       2.71481909       2.71466334       0.00013819       0.00000000
