10
Lattice="16.28999089631971 0.0 0.0 0.0 16.28999089631971 0.0 0.0 0.0 34.54679606040008" Properties=species:S:1:pos:R:3:initial_magmoms:R:1 pbc="T T T"
Si       1.29655368      -0.44365815      -1.90843517       0.00000000
Si      -0.11070684       2.26307196       0.72123386       0.00000000
Si       0.91106712      -0.93291201       2.02883083       0.00000000
Si      -2.14460198      -0.86030748      -0.76690475       0.00000000
Si      -1.13638551      -1.29424050       3.16435010       0.00000000
Si       1.82692350       2.41269561       2.08811316       0.00000000
Si      -2.30180048       2.47691079       1.52372184       0.00000000
Si       0.13429476       0.65648700      -3.66500255       0.00000000
Si       1.34148150      -2.79529884      -2.13354222       0.00000000
Si       3.39400521       0.60318612      -1.57042913       0.00000000
