10
Lattice="16.28999089631971 0.0 0.0 0.0 16.28999089631971 0.0 0.0 0.0 34.54679606040008" Properties=species:S:1:pos:R:3:initial_magmoms:R:1 pbc="T T T"
Si      -1.60250106       1.75154967      -0.13815271       0.00000000
Si       1.40452380      -0.19375326      -1.92180479       0.00000000
Si      -1.12237123      -2.16169929       0.01150409       0.00000000
Si       2.16829674       1.06308540       0.69380369       0.00000000
Si      -1.56952032      -2.11473522      -2.31798767       0.00000000
Si      -0.47649879       3.37429431       1.17224254       0.00000000
Si       3.56786838       0.11303631      -0.94882828       0.00000000
Si       1.60513515       3.35609838       0.10239676       0.00000000
Si       0.47793231      -1.75340673      -3.45350694       0.00000000
Si      -3.38275601       1.36272366       1.44668244       0.00000000
