10
Lattice="16.28999089631971 0.0 0.0 0.0 16.28999089631971 0.0 0.0 0.0 34.54679606040008" Properties=species:S:1:pos:R:3:initial_magmoms:R:1 pbc="T T T"
Si       1.05482637       1.64688253      -1.28860243       0.00000000
Si       1.56162456      -1.14106563       1.34477624       0.00000000
Si      -0.84949092      -1.82594610      -1.26824330       0.00000000
Si      -1.18245852       1.56500448       1.34921896       0.00000000
Si      -2.57236856      -2.54128887       0.10392373       0.00000000
Si       0.19894977      -2.50144353       2.72252397       0.00000000
Si      -2.52133688       0.22405266       2.72818965       0.00000000
Si       2.86241364      -2.43069606      -0.26271817       0.00000000
Si       1.56284631       0.46652931      -3.42558072       0.00000000
Si      -2.48369720       2.96818691      -0.14300654       0.00000000
