10
Lattice="16.28999089631971 0.0 0.0 0.0 16.28999089631971 0.0 0.0 0.0 34.54679606040008" Properties=species:S:1:pos:R:3:initial_magmoms:R:1 pbc="T T T"
Si       1.35626956       1.35765747      -1.35810441       0.00000000
Si       1.35767050      -1.35755973       1.35706800       0.00000000
Si      -1.35749709       1.35829278       1.35775894       0.00000000
Si      -1.35757166      -1.35821133      -1.35782803       0.00000000
Si       2.71395961      -0.00043983       2.71451602       0.00000000
Si       0.00129831      -2.71419093       2.71430874       0.00000000
Si       0.00031440       2.71528236       2.71385963       0.00000000
Si      -2.71382670      -0.00060273      -2.71589789       0.00000000
Si       2.71514878      -2.71482624      -0.00034547       0.00000000
Si      -2.71529280      -2.71476108       0.00003455       0.00000000
