10
Lattice="10.86 0.0 0.0 0.0 10.86 0.0 0.0 0.0 10.86" Properties=species:S:1:pos:R:3:initial_magmoms:R:1 pbc="T T T"
Si      -1.13569536      -1.58133546      -1.04967330       0.00000000
Si      -1.24300302       0.99820776       1.59043614       0.00000000
Si       1.81785540       1.25367840      -1.11262872       0.00000000
Si      -2.50820388      -0.14505702      -2.39743188       0.00000000
Si       0.20679612       2.56994298      -2.39743188       0.00000000
Si      -2.50820388       2.56994298       0.31756812       0.00000000
Si       0.20679612      -2.86005702      -2.39743188       0.00000000
Si       2.92179612      -0.14505702      -2.39743188       0.00000000
Si      -2.50820388      -2.86005702       0.31756812       0.00000000
Si       2.92179612       2.56994298       0.31756812       0.00000000
