10
Lattice="10.86 0.0 0.0 0.0 10.86 0.0 0.0 0.0 10.86" Properties=species:S:1:pos:R:3:initial_magmoms:R:1 pbc="T T T"
Si       1.10394072      -1.39873542      -1.28480316       0.00000000
Si       1.10394072       1.31626458       1.43019684       0.00000000
Si      -1.61105928       1.31626458      -1.28480316       0.00000000
Si      -1.81785540      -1.25367840       1.11262872       0.00000000
Si       2.46144072      -0.04123542      -2.64230316       0.00000000
Si       2.46144072       2.67376458       0.07269684       0.00000000
Si       2.17257558      -0.14764170       2.97136116       0.00000000
Si       2.25868452      -3.00406062       0.04093134       0.00000000
Si      -0.25355928       2.67376458      -2.64230316       0.00000000
Si      -0.25355928      -2.75623542      -2.64230316       0.00000000
