10
Lattice="10.86 0.0 0.0 0.0 10.86 0.0 0.0 0.0 10.86" Properties=species:S:1:pos:R:3:initial_magmoms:R:1 pbc="T T T"
Si       1.35750000       1.35750000       1.35750000       0.00000000
Si       1.35750000      -1.35750000      -1.35750000       0.00000000
Si      -1.35750000       1.35750000      -1.35750000       0.00000000
Si      -1.35750000      -1.35750000       1.35750000       0.00000000
Si       2.51629458      -0.16072800       2.42949060       0.00000000
Si       2.62270086       2.50076478      -0.08463198       0.00000000
Si      -2.53964358      -2.59506216      -0.16242216       0.00000000
Si       2.60334834      -2.66368650       0.12105642       0.00000000
Si      -2.68038918      -0.10086768       2.73793632       0.00000000
Si       0.00000000       2.71500000       2.71500000       0.00000000
