10
Lattice="10.86 0.0 0.0 0.0 10.86 0.0 0.0 0.0 10.86" Properties=species:S:1:pos:R:3:initial_magmoms:R:1 pbc="T T T"
Si      -1.06863486       1.46390628      -1.54116432       0.00000000
Si       1.64636514       1.46390628       1.17383568       0.00000000
Si       1.64636514      -1.25109372      -1.54116432       0.00000000
Si      -2.46611052       0.10726422       2.38359624       0.00000000
Si      -2.17257558       0.14764170      -2.97136116       0.00000000
Si      -2.42613486       2.82140628      -0.18366432       0.00000000
Si       0.32347596      -2.70946140       2.55427200       0.00000000
Si       0.28886514       2.82140628       2.53133568       0.00000000
Si       3.00386514       0.10640628       2.53133568       0.00000000
Si       3.00386514      -2.60859372      -0.18366432       0.00000000
