10
Lattice="10.86 0.0 0.0 0.0 10.86 0.0 0.0 0.0 10.86" Properties=species:S:1:pos:R:3:initial_magmoms:R:1 pbc="T T T"
Si      -1.39438056      -1.17860322       1.31837142       0.00000000
Si       1.32061944      -1.17860322      -1.39662858       0.00000000
Si       1.66057002       1.80679992       0.44846370       0.00000000
Si      -1.39438056       1.53639678      -1.39662858       0.00000000
Si       2.36974974       0.23154606       2.32166166       0.00000000
Si       0.23730186       2.66495712       2.34987594       0.00000000
Si      -0.03688056      -2.53610322       2.67587142       0.00000000
Si       2.67811944      -2.53610322      -0.03912858       0.00000000
Si      -2.75188056      -2.53610322      -0.03912858       0.00000000
Si      -0.03688056      -2.53610322      -2.75412858       0.00000000
