10
Lattice="10.86 0.0 0.0 0.0 10.86 0.0 0.0 0.0 10.86" Properties=species:S:1:pos:R:3:initial_magmoms:R:1 pbc="T T T"
Si      -1.35750000      -1.35750000       1.35750000       0.00000000
Si       1.35750000      -1.35750000      -1.35750000       0.00000000
Si       1.35750000       1.35750000       1.35750000       0.00000000
Si      -1.35750000       1.35750000      -1.35750000       0.00000000
Si      -0.30836970       2.76764928       2.36079024       0.00000000
Si      -2.67811944       2.53610322       0.03912858       0.00000000
Si       0.09093078       2.63537448      -2.60878920       0.00000000
Si      -0.31611288      -2.71710684      -2.51067996       0.00000000
Si       0.04005168      -2.65915788       2.66530464       0.00000000
Si       2.67956382      -2.68245258       0.27432360       0.00000000
