10
Lattice="10.86 0.0 0.0 0.0 10.86 0.0 0.0 0.0 10.86" Properties=species:S:1:pos:R:3:initial_magmoms:R:1 pbc="T T T"
Si      -1.20007344      -1.45029870       1.18843152       0.00000000
Si      -1.20007344       1.26470130      -1.52656848       0.00000000
Si       2.06321538       0.62464548       1.10669916       0.00000000
Si       1.51492656      -1.45029870      -1.52656848       0.00000000
Si       0.33765912       2.36711076       2.16797094       0.00000000
Si      -2.55757344      -0.09279870       2.54593152       0.00000000
Si       2.55631368       2.62009446       0.03525156       0.00000000
Si      -2.55757344       2.62220130      -0.16906848       0.00000000
Si       1.85487714      -1.17989556       3.03352380       0.00000000
Si      -2.55757344      -2.80779870      -0.16906848       0.00000000
