10
Lattice="10.86 0.0 0.0 0.0 10.86 0.0 0.0 0.0 10.86" Properties=species:S:1:pos:R:3:initial_magmoms:R:1 pbc="T T T"
Si       1.39293618       1.32495258       1.08317640       0.00000000
Si      -1.32206382       1.32495258      -1.63182360       0.00000000
Si       1.39293618      -1.39004742      -1.63182360       0.00000000
Si      -0.16791732      -2.65772436       2.31674208       0.00000000
Si      -2.63951214       0.02329470       2.39098104       0.00000000
Si       0.03543618       2.68245258       2.44067640       0.00000000
Si       2.75043618      -0.03254742       2.44067640       0.00000000
Si      -2.67956382       2.68245258      -0.27432360       0.00000000
Si       2.75043618       2.68245258      -0.27432360       0.00000000
Si       2.75043618      -2.74754742      -0.27432360       0.00000000
