10
Lattice="16.28999089631971 0.0 0.0 0.0 16.28999089631971 0.0 0.0 0.0 34.385447050020396" Properties=species:S:1:pos:R:3:initial_magmoms:R:1 pbc="T T T"
Si      -2.18601116       0.78929937       0.36806203       0.00000000
Si       1.48543623       1.74437948      -0.58008282       0.00000000
Si       0.11650608      -1.46438955      -1.86623680       0.00000000
Si       0.28797462      -1.13410980       2.12395587       0.00000000
Si      -3.07865429      -1.43120682       0.65157020       0.00000000
Si      -1.96961480      -1.64172249       2.71449186       0.00000000
Si      -2.00680487       2.13898356       2.42104629       0.00000000
Si       3.69103707       0.84297492      -0.66755944       0.00000000
Si       0.26432154      -0.27424215      -3.85825563       0.00000000
Si       1.23421185      -3.27626109       1.76283970       0.00000000
