10
Lattice="16.28999089631971 0.0 0.0 0.0 16.28999089631971 0.0 0.0 0.0 34.385447050020396" Properties=species:S:1:pos:R:3:initial_magmoms:R:1 pbc="T T T"
Si       1.35197226       1.84984353       0.18839797       0.00000000
Si      -2.03908446       0.53639712       1.08988174       0.00000000
Si       1.13528268      -1.88786765       0.96537197       0.00000000
Si       0.63519597       2.00414241      -2.11394970       0.00000000
Si      -0.93542067       0.60202953      -3.30544049       0.00000000
Si      -2.88679977      -0.37359486      -2.17061694       0.00000000
Si       3.37704732      -1.48596077       0.31483333       0.00000000
Si      -3.68821890      -0.74402131       0.05783635       0.00000000
Si       0.25006779       3.86340156      -0.19496559       0.00000000
Si      -1.98690759      -0.32104332       3.31836942       0.00000000
