10
Lattice="16.28999089631971 0.0 0.0 0.0 16.28999089631971 0.0 0.0 0.0 34.385447050020396" Properties=species:S:1:pos:R:3:initial_magmoms:R:1 pbc="T T T"
Si      -0.81534708       1.94296385       0.97833529       0.00000000
Si       1.83321144      -0.98987865       1.06986940       0.00000000
Si      -1.44303336      -1.77018594       0.56258061       0.00000000
Si       0.09555714       0.32674824      -2.35818966       0.00000000
Si      -3.44756673      -0.43412901       0.44274726       0.00000000
Si      -3.02663313       1.89357257      -0.00519221       0.00000000
Si      -1.14152175      -3.23890863      -1.28818272       0.00000000
Si      -0.72993861       1.55258540       3.31441509       0.00000000
Si      -0.39254013      -1.84124292      -3.24753536       0.00000000
Si       1.92658572      -3.25257594       0.40389169       0.00000000
