10
Lattice="16.28999089631971 0.0 0.0 0.0 16.28999089631971 0.0 0.0 0.0 34.385447050020396" Properties=species:S:1:pos:R:3:initial_magmoms:R:1 pbc="T T T"
Si       2.31055731       0.51232050      -0.19857607       0.00000000
Si      -1.34465805       1.55435922       1.19771456       0.00000000
Si      -0.63988749      -0.65350593      -2.20029160       0.00000000
Si      -0.40964463      -2.13799734       1.26387220       0.00000000
Si       0.78235983      -3.57417913      -0.23313346       0.00000000
Si       0.74344302      -2.64207836      -2.47888265       0.00000000
Si      -3.64682601       0.56413899       0.61807876       0.00000000
Si       3.39053544      -0.22265172       1.66958631       0.00000000
Si      -1.20906009       3.67194519      -0.18798534       0.00000000
Si       3.09951459       0.04683375      -2.39625437       0.00000000
