10
Lattice="16.28999089631971 0.0 0.0 0.0 16.28999089631971 0.0 0.0 0.0 34.385447050020396" Properties=species:S:1:pos:R:3:initial_magmoms:R:1 pbc="T T T"
Si      -1.21542948       1.34412048      -1.44966719       0.00000000
Si      -1.36003581      -1.34530965       1.35322971       0.00000000
Si       1.35422028       1.36829484       1.34937854       0.00000000
Si       1.11970944      -1.48129857      -1.46842790       0.00000000
Si       0.60699798       2.19605490      -2.73827771       0.00000000
Si       2.23484139       0.26770986      -2.82637327       0.00000000
Si      -2.20125141      -0.30946113      -2.87743569       0.00000000
Si      -0.00514764      -2.70151731       2.70636658       0.00000000
Si      -0.73594962      -2.32883469      -2.94373087       0.00000000
Si       2.71112841      -2.70306486      -0.04291306       0.00000000
