10
Lattice="16.28999089631971 0.0 0.0 0.0 16.28999089631971 0.0 0.0 0.0 34.385447050020396" Properties=species:S:1:pos:R:3:initial_magmoms:R:1 pbc="T T T"
Si       1.58467491      -1.56931344      -0.68103854       0.00000000
Si      -1.30306968       1.41550326      -1.31930157       0.00000000
Si       1.20119202       1.32004386       1.52575191       0.00000000
Si      -1.83710475      -1.04345595       1.07468336       0.00000000
Si      -1.72639791       2.95191090       0.51959878       0.00000000
Si       0.29077650      -3.51187965      -0.36703047       0.00000000
Si       3.15923373      -1.21671639       1.07045395       0.00000000
Si      -0.52357689       2.45930130       2.54569361       0.00000000
Si      -3.32042328       0.06242328      -1.65621037       0.00000000
Si       0.26093322       2.16253008      -3.02908449       0.00000000
