10
Lattice="16.28999089631971 0.0 0.0 0.0 16.28999089631971 0.0 0.0 0.0 34.385447050020396" Properties=species:S:1:pos:R:3:initial_magmoms:R:1 pbc="T T T"
Si      -1.35729909       1.35596331      -1.35702243       0.00000000
Si       1.35711990      -1.35744570      -1.35733190       0.00000000
Si      -1.35778779      -1.35772263       1.35722874       0.00000000
Si       1.35780408       1.35785295       1.35798522       0.00000000
Si       0.00053757       2.71476108       2.71225681       0.00000000
Si      -0.00091224       2.71127502      -2.71600482       0.00000000
Si       0.00019548      -2.71327869      -2.71514519       0.00000000
Si      -2.71469592       2.71456560      -0.00020631       0.00000000
Si       2.71298547      -0.00052128       2.71634868       0.00000000
Si      -2.71629234      -0.00014661      -2.71311644       0.00000000
