10
Lattice="16.28999089631971 0.0 0.0 0.0 16.28999089631971 0.0 0.0 0.0 34.385447050020396" Properties=species:S:1:pos:R:3:initial_magmoms:R:1 pbc="T T T"
Si       1.36042677       1.35573525      -1.37108608       0.00000000
Si      -1.35360126      -1.36179513      -1.37301167       0.00000000
Si       1.27206981      -1.35557235       1.48583038       0.00000000
Si      -1.50609195       1.19721726       1.42593090       0.00000000
Si      -2.36897325      -0.69483366       2.62577736       0.00000000
Si      -0.52085646      -2.22653349       2.83415329       0.00000000
Si       2.71502172       2.69050527      -0.00034385       0.00000000
Si      -2.70873378      -2.71868697      -0.04029977       0.00000000
Si      -2.72080467       2.71148679       0.00801181       0.00000000
Si       2.71562445      -2.71707426       0.02152530       0.00000000
