10
Lattice="16.28999089631971 0.0 0.0 0.0 16.28999089631971 0.0 0.0 0.0 34.385447050020396" Properties=species:S:1:pos:R:3:initial_magmoms:R:1 pbc="T T T"
Si       1.44303336       1.77018594      -0.56258061       0.00000000
Si       0.30151161      -1.46872269      -1.85076334       0.00000000
Si      -2.00453337       1.33605693      -0.11983335       0.00000000
Si       0.23837157      -0.78424947       2.30018138       0.00000000
Si       3.27624480       0.78030729       0.50728878       0.00000000
Si      -2.17517112       1.62561168       2.22642456       0.00000000
Si      -0.20722509       1.23957126       3.34171715       0.00000000
Si      -1.57429818      -2.34993024       2.27535507       0.00000000
Si       3.36961908      -1.48239000      -0.15868893       0.00000000
Si       0.62768628       3.71314979       0.41575467       0.00000000
