10
Lattice="16.28999089631971 0.0 0.0 0.0 16.28999089631971 0.0 0.0 0.0 34.385447050020396" Properties=species:S:1:pos:R:3:initial_magmoms:R:1 pbc="T T T"
Si       0.74714085      -1.91727507       1.16233535       0.00000000
Si      -0.47293291      -0.53125600      -2.31558061       0.00000000
Si      -1.97760372       0.80705547       1.17526429       0.00000000
Si       1.80190206       1.93391622      -0.14140335       0.00000000
Si       2.08453356      -0.55931878       2.54705527       0.00000000
Si      -0.64859612       2.17469871       2.55073452       0.00000000
Si      -1.20065771       1.61868843      -2.98767893       0.00000000
Si       3.45400128       0.80290152       1.15638667       0.00000000
Si       0.71561970       3.52284282       1.19553796       0.00000000
Si       2.06900919      -3.28553729      -0.48742774       0.00000000
