10
Lattice="16.28999089631971 0.0 0.0 0.0 16.28999089631971 0.0 0.0 0.0 34.385447050020396" Properties=species:S:1:pos:R:3:initial_magmoms:R:1 pbc="T T T"
Si       1.26042246      -1.23453765       1.60743325       0.00000000
Si       1.09268433       1.45802016      -1.56340399       0.00000000
Si      -0.85660965      -1.63602099      -1.56440117       0.00000000
Si      -1.50807933       1.85214042       1.01842874       0.00000000
Si      -2.03929623       0.06058251      -2.76864897       0.00000000
Si      -0.59684931      -2.11457232       2.79976923       0.00000000
Si      -0.95503383       2.20162675      -2.67663347       0.00000000
Si       2.09841264       0.54812592       2.89199793       0.00000000
Si       2.48971473       2.84698279      -0.15923909       0.00000000
Si      -2.04309180      -3.55105710      -0.79750212       0.00000000
