10
Lattice="16.28999089631971 0.0 0.0 0.0 16.28999089631971 0.0 0.0 0.0 34.385447050020396" Properties=species:S:1:pos:R:3:initial_magmoms:R:1 pbc="T T T"
Si       1.35697329       1.35706444       1.35650664       0.00000000
Si      -1.35765747      -1.35744645       1.35605963       0.00000000
Si      -1.35754344       1.35712634      -1.35867293       0.00000000
Si       1.35834165      -1.36010172      -1.35918871       0.00000000
Si       2.71404432       0.00018116       2.71352907       0.00000000
Si      -0.00084708      -2.71458264       2.71363223       0.00000000
Si       0.00006516       2.71466978       2.71387293       0.00000000
Si      -2.71500543       2.71400189      -0.00048140       0.00000000
Si      -2.71309950      -2.71598358      -0.00027508       0.00000000
Si      -2.71526607      -0.00036191       2.71404485       0.00000000
