10
Lattice="16.28999089631971 0.0 0.0 0.0 16.28999089631971 0.0 0.0 0.0 34.385447050020396" Properties=species:S:1:pos:R:3:initial_magmoms:R:1 pbc="T T T"
Si      -0.95874795       1.98684243      -0.63176417       0.00000000
Si      -1.66480542      -1.02377763       1.23454140       0.00000000
Si       1.66092840       0.53076078       1.53957487       0.00000000
Si       0.95518044      -0.61211304      -2.10263688       0.00000000
Si       2.42030304       1.22533380      -1.95168468       0.00000000
Si      -1.01056644      -3.15624356       0.45866773       0.00000000
Si       3.50034633       0.74455074       0.05611708       0.00000000
Si       0.85217877       3.04267878      -1.73849479       0.00000000
Si       1.81107333      -1.45791428       2.84804501       0.00000000
Si       1.06551261      -3.28959350       1.58946818       0.00000000
