10
Lattice="16.28999089631971 0.0 0.0 0.0 16.28999089631971 0.0 0.0 0.0 34.385447050020396" Properties=species:S:1:pos:R:3:initial_magmoms:R:1 pbc="T T T"
Si      -0.74556072      -1.83167922      -1.25857684       0.00000000
Si      -1.54300509      -0.04264396       1.78715022       0.00000000
Si      -0.15014493       1.98867505      -1.30847015       0.00000000
Si       2.41730568       0.18148037      -0.06622641       0.00000000
Si      -0.15501564       1.45296211       3.04421410       0.00000000
Si       0.97984350      -1.71031872      -2.78652942       0.00000000
Si       2.53247598       0.00488048      -2.39429440       0.00000000
Si      -1.81107333       1.45791428      -2.84804501       0.00000000
Si      -3.48087978       0.91374683       0.76493908       0.00000000
Si      -3.47587875       0.43413665      -1.61350362       0.00000000
