10
Lattice="16.28999089631971 0.0 0.0 0.0 16.28999089631971 0.0 0.0 0.0 34.385447050020396" Properties=species:S:1:pos:R:3:initial_magmoms:R:1 pbc="T T T"
Si       1.15606872      -1.49995062      -1.43098556       0.00000000
Si      -1.43630559      -1.32447474       1.35602525       0.00000000
Si      -1.56110328       1.23093756      -1.42156395       0.00000000
Si       1.48810779       1.31538492       1.59276918       0.00000000
Si       2.61374679       2.62177776       0.00770234       0.00000000
Si       2.50561377      -0.13820436      -2.80719508       0.00000000
Si      -1.82143377       0.53478441       3.27500935       0.00000000
Si      -0.21512574       2.57880474      -2.80829542       0.00000000
Si       2.52861525      -2.90791161       0.05656409       0.00000000
Si      -2.93667975       2.70119151      -0.03266619       0.00000000
