10
Lattice="16.28999089631971 0.0 0.0 0.0 16.28999089631971 0.0 0.0 0.0 34.385447050020396" Properties=species:S:1:pos:R:3:initial_magmoms:R:1 pbc="T T T"
Si       2.30537709       0.27346023      -0.04219097       0.00000000
Si      -0.81109539      -0.54260361       2.14716606       0.00000000
Si      -0.97694388       1.85445360      -1.11408911       0.00000000
Si       0.05716161      -2.01453543      -1.25720142       0.00000000
Si      -3.04890156       0.85900428      -1.59995575       0.00000000
Si      -3.07600812      -0.93353103       1.76118920       0.00000000
Si       1.89657954      -1.80074547      -2.74065920       0.00000000
Si       3.30830352      -1.69451838       0.80998404       0.00000000
Si      -1.47295809       3.48718401       0.55051131       0.00000000
Si       3.12507360       0.15491790      -2.22504914       0.00000000
