10
Lattice="16.28999089631971 0.0 0.0 0.0 16.28999089631971 0.0 0.0 0.0 34.385447050020396" Properties=species:S:1:pos:R:3:initial_magmoms:R:1 pbc="T T T"
Si       1.35672894      -1.35770634      -1.36207709       0.00000000
Si      -1.35881406       1.35971001      -1.36276480       0.00000000
Si       1.35956340       1.35726651       1.36885103       0.00000000
Si      -1.36032903      -1.35417141       1.38649077       0.00000000
Si       2.71487511      -2.71295289      -0.00436695       0.00000000
Si       2.71178001       2.71933857      -0.00326662       0.00000000
Si      -2.71710684      -2.71417464      -0.00395433       0.00000000
Si      -2.71552671       2.71863810      -0.00612061       0.00000000
Si       0.00014661      -2.71422351      -2.72044055       0.00000000
Si      -0.06294456       2.60509680       2.82466290       0.00000000
