10
Lattice="16.28999089631971 0.0 0.0 0.0 16.28999089631971 0.0 0.0 0.0 34.385447050020396" Properties=species:S:1:pos:R:3:initial_magmoms:R:1 pbc="T T T"
Si       0.07014474       1.15002513      -1.96547325       0.00000000
Si      -0.93320523       1.46551356       1.49342957       0.00000000
Si       1.61391546      -1.29782430       1.03871616       0.00000000
Si      -1.80418266      -1.49908725      -0.02816170       0.00000000
Si       0.16158051      -1.85999220       2.86073325       0.00000000
Si       1.73654658      -2.93446431      -0.58482801       0.00000000
Si       0.01602936       0.49407570       3.43971573       0.00000000
Si      -0.61089129      -3.43720629      -0.66116375       0.00000000
Si      -3.06110277       1.84816566       0.49339706       0.00000000
Si      -0.02322954       3.41272242      -1.29949554       0.00000000
