10
Lattice="16.28999089631971 0.0 0.0 0.0 16.28999089631971 0.0 0.0 0.0 34.385447050020396" Properties=species:S:1:pos:R:3:initial_magmoms:R:1 pbc="T T T"
Si       1.38891798       1.32690195      -1.34442359       0.00000000
Si       1.35622395      -1.35224919       1.35561262       0.00000000
Si      -1.35663120       1.35900954       1.35575016       0.00000000
Si      -1.35325917      -1.36454814      -1.35746256       0.00000000
Si       0.09839160       2.68597665      -2.66010093       0.00000000
Si      -2.59687035       0.02327841      -2.75232963       0.00000000
Si       2.71013472      -2.71303434      -0.00773673       0.00000000
Si      -0.00151497      -2.71251306       2.71280698       0.00000000
Si       2.71353933       0.00340461       2.71328837       0.00000000
Si      -2.71428867      -2.71345788      -0.00226944       0.00000000
