10
Lattice="16.28999089631971 0.0 0.0 0.0 16.28999089631971 0.0 0.0 0.0 34.385447050020396" Properties=species:S:1:pos:R:3:initial_magmoms:R:1 pbc="T T T"
Si       1.35791811      -1.35700587      -1.35636910       0.00000000
Si      -1.35681039       1.35713619      -1.35757259       0.00000000
Si       1.35749457       1.35725022       1.35736628       0.00000000
Si      -1.35819504      -1.35703845       1.35774452       0.00000000
Si      -2.71225242      -0.00140094      -2.71390731       0.00000000
Si       0.00060273      -2.71265967      -2.71404485       0.00000000
Si       0.00084708       2.71458264      -2.71363223       0.00000000
Si      -2.71441899       2.71422073       0.00041263       0.00000000
Si      -2.71490769       0.00188964       2.71438871       0.00000000
Si       2.71239903       0.00259011       2.71724270       0.00000000
