10
Lattice="16.28999089631971 0.0 0.0 0.0 16.28999089631971 0.0 0.0 0.0 34.385447050020396" Properties=species:S:1:pos:R:3:initial_magmoms:R:1 pbc="T T T"
Si       1.47919716       1.38559482       1.18970275       0.00000000
Si      -0.59932539       0.34212258      -2.26345770       0.00000000
Si       1.15950591      -2.10558024      -0.11601656       0.00000000
Si      -1.91433564       0.74010357       1.31366235       0.00000000
Si      -1.82096136      -1.52259372       0.64768464       0.00000000
Si       1.52682912       0.20426031      -3.15252832       0.00000000
Si       3.46809213       0.71200332       0.13248720       0.00000000
Si       0.21949146       3.36915386       1.18873995       0.00000000
Si       3.14442612      -1.52899569       1.01901329       0.00000000
Si       2.67384060       1.79311134      -1.79523081       0.00000000
