10
Lattice="16.28999089631971 0.0 0.0 0.0 16.28999089631971 0.0 0.0 0.0 34.385447050020396" Properties=species:S:1:pos:R:3:initial_magmoms:R:1 pbc="T T T"
Si       1.35777696       1.33732755       1.38030139       0.00000000
Si      -1.36512002      -1.37391489       1.37844457       0.00000000
Si       1.52209745      -1.27265625      -1.38237827       0.00000000
Si      -1.04619440       1.72918350      -1.35118034       0.00000000
Si      -2.21278646       0.29393676      -3.02638321       0.00000000
Si       2.71365882       2.68539021      -0.01095177       0.00000000
Si      -2.71332929      -2.69990460       0.01326591       0.00000000
Si       2.70782700      -2.72741841       0.02837145       0.00000000
Si      -0.00444890       2.70350469       2.73395404       0.00000000
Si       2.70826683      -0.01171251       2.73636102       0.00000000
