10
Lattice="16.28999089631971 0.0 0.0 0.0 16.28999089631971 0.0 0.0 0.0 34.385447050020396" Properties=species:S:1:pos:R:3:initial_magmoms:R:1 pbc="T T T"
Si       2.09235669      -0.41979167      -0.94288387       0.00000000
Si      -0.11517030       0.17659989       2.32806799       0.00000000
Si      -1.55263248      -1.71519921      -0.39223501       0.00000000
Si      -0.84320298       2.19758453      -0.39763353       0.00000000
Si      -2.53247598      -0.00488048       2.39429440       0.00000000
Si      -2.68262091       1.98379457       1.08582425       0.00000000
Si      -2.12866317      -1.14263829      -2.55542470       0.00000000
Si       3.19660529       1.68845687      -0.64338646       0.00000000
Si       1.78962659      -0.51964937      -3.25998290       0.00000000
Si      -0.57098079      -3.82055139      -0.39295711       0.00000000
