10
Lattice="16.28999089631971 0.0 0.0 0.0 16.28999089631971 0.0 0.0 0.0 34.385447050020396" Properties=species:S:1:pos:R:3:initial_magmoms:R:1 pbc="T T T"
Si      -1.58786775       1.81151316       0.14230464       0.00000000
Si       1.81941381       0.88622487       1.45098900       0.00000000
Si      -0.94822461      -1.85901643       1.36107101       0.00000000
Si       1.65926682       0.87938307      -1.69582243       0.00000000
Si      -1.54383588      -0.82119519      -2.44614768       0.00000000
Si      -2.08798704       1.56828717      -2.14850709       0.00000000
Si       0.39508137       2.18023731       2.77598137       0.00000000
Si      -2.33109900      -0.55964295       2.77054159       0.00000000
Si      -3.45756879       0.93538809       1.31191355       0.00000000
Si       3.37496776       2.05436448       0.12300648       0.00000000
