10
Lattice="16.28999089631971 0.0 0.0 0.0 16.28999089631971 0.0 0.0 0.0 34.385447050020396" Properties=species:S:1:pos:R:3:initial_magmoms:R:1 pbc="T T T"
Si       1.81637477       0.96987402       1.12523000       0.00000000
Si      -1.18985418       1.49030694      -1.38525289       0.00000000
Si       1.47945033      -1.22784246      -1.39003247       0.00000000
Si      -1.70800650      -0.88995528       1.46262019       0.00000000
Si      -0.93165768       1.85060916       2.35729564       0.00000000
Si      -3.24141678       1.06347636       1.25410673       0.00000000
Si      -2.56455099      -2.61047250       0.03307882       0.00000000
Si      -2.55837708       0.13128111      -2.73092812       0.00000000
Si       0.15663860      -2.58488091      -2.73622348       0.00000000
Si      -2.43546903       2.89742085      -0.00777112       0.00000000
