10
Lattice="16.28999089631971 0.0 0.0 0.0 16.28999089631971 0.0 0.0 0.0 34.385447050020396" Properties=species:S:1:pos:R:3:initial_magmoms:R:1 pbc="T T T"
Si       2.24069343      -0.63081396       0.30369244       0.00000000
Si      -0.18524988       0.63949653      -2.28340127       0.00000000
Si      -1.65926682      -0.87938307       1.69582243       0.00000000
Si       1.71570094       1.17498141       1.81882891       0.00000000
Si       0.71744418       2.73843045       0.35582080       0.00000000
Si       0.16014699       0.00684180       3.14681143       0.00000000
Si       1.96745148       1.65451014      -2.62037884       0.00000000
Si      -3.20310270      -1.70057826      -0.75032526       0.00000000
Si      -0.46639899      -1.47303954      -3.37806259       0.00000000
Si      -3.74725386       0.68890410      -0.45268466       0.00000000
