10
Lattice="16.28999089631971 0.0 0.0 0.0 16.28999089631971 0.0 0.0 0.0 34.385447050020396" Properties=species:S:1:pos:R:3:initial_magmoms:R:1 pbc="T T T"
Si       1.36562165      -1.34563545       1.26710443       0.00000000
Si      -1.32281173      -1.35703845      -1.34619100       0.00000000
Si       1.39406399       1.35925389      -1.34017355       0.00000000
Si      -1.47945033       1.22784246       1.39003247       0.00000000
Si       2.17999133       0.51790797       2.42142453       0.00000000
Si       0.33692444       2.19771648       2.51526247       0.00000000
Si      -2.66744745      -2.70190827       0.02049374       0.00000000
Si      -2.67904593       0.00004887      -2.70008435       0.00000000
Si      -2.66930451       2.71814940       0.00477958       0.00000000
Si       0.03297910      -2.71332756      -2.70001558       0.00000000
