10
Lattice="16.28999089631971 0.0 0.0 0.0 16.28999089631971 0.0 0.0 0.0 34.385447050020396" Properties=species:S:1:pos:R:3:initial_magmoms:R:1 pbc="T T T"
Si       0.43914582      -1.08926343       1.98919922       0.00000000
Si      -2.29056948      -0.52717698      -0.31108531       0.00000000
Si       0.48215142      -1.31237127      -1.93823996       0.00000000
Si       0.64708767       2.17000719       1.01158603       0.00000000
Si       2.79191052      -0.52523847      -0.83505105       0.00000000
Si       1.28809917       0.52157322      -3.20011780       0.00000000
Si      -2.84959341       1.55641176      -1.53923101       0.00000000
Si      -1.13018391      -0.15027525       3.41712448       0.00000000
Si       2.89041615       1.57739328      -1.76837576       0.00000000
Si      -3.07444428      -0.56712006       2.07719163       0.00000000
