10
Lattice="16.28999089631971 0.0 0.0 0.0 16.28999089631971 0.0 0.0 0.0 34.385447050020396" Properties=species:S:1:pos:R:3:initial_magmoms:R:1 pbc="T T T"
Si      -1.04407497       0.97567326      -1.78604989       0.00000000
Si       2.03109326       0.01534518       1.08152607       0.00000000
Si      -1.22953662       0.59264649       1.94652686       0.00000000
Si      -0.69006069      -2.35530594      -0.59421524       0.00000000
Si       2.24216279       2.31298452       0.81390399       0.00000000
Si       1.70395748       0.09493812      -3.01811553       0.00000000
Si      -0.89889849      -1.53564201       3.01533031       0.00000000
Si       1.47950245      -1.54815273       2.83339681       0.00000000
Si      -3.39683967       0.41164830       1.03820038       0.00000000
Si      -1.82042379      -1.76489118      -2.68072534       0.00000000
