10
Lattice="16.28999089631971 0.0 0.0 0.0 16.28999089631971 0.0 0.0 0.0 34.385447050020396" Properties=species:S:1:pos:R:3:initial_magmoms:R:1 pbc="T T T"
Si       1.22679990       1.54494360       1.32198364       0.00000000
Si       1.71880677      -1.22611572      -1.24083394       0.00000000
Si      -1.30491045      -1.85839578       1.09913143       0.00000000
Si      -2.05477173       0.26094951      -1.49449552       0.00000000
Si       1.57473801       2.68343541      -0.74155697       0.00000000
Si      -0.00421911      -2.47827915      -2.31266330       0.00000000
Si      -0.97371846       3.30014223       1.03596533       0.00000000
Si      -3.54105504      -0.78292998       1.35107374       0.00000000
Si       2.55900329      -2.90367621       0.37425141       0.00000000
Si      -1.77116283       2.38350393      -2.51117060       0.00000000
