10
Lattice="16.28999089631971 0.0 0.0 0.0 16.28999089631971 0.0 0.0 0.0 34.385447050020396" Properties=species:S:1:pos:R:3:initial_magmoms:R:1 pbc="T T T"
Si      -1.35353274       1.34824990      -1.36001396       0.00000000
Si       1.35933937       1.35609353       1.35812276       0.00000000
Si      -1.35672558      -1.35982644       1.35757259       0.00000000
Si       1.35651794      -1.35647070      -1.36424337       0.00000000
Si      -2.71066893       2.71610165      -0.00051578       0.00000000
Si       2.71469018       2.71356041      -0.00079087       0.00000000
Si       0.00151625       2.71323461       2.71517957       0.00000000
Si      -2.71264002      -2.71653909       0.00182243       0.00000000
Si      -2.71430160      -0.00122143       2.71504203       0.00000000
Si       0.00119382      -2.71652280       2.71521396       0.00000000
