10
Lattice="16.28999089631971 0.0 0.0 0.0 16.28999089631971 0.0 0.0 0.0 34.385447050020396" Properties=species:S:1:pos:R:3:initial_magmoms:R:1 pbc="T T T"
Si      -0.39084434      -2.14136937       0.89632595       0.00000000
Si       2.12883422       0.13220964       1.11773397       0.00000000
Si       0.82128478      -0.97567326      -2.06453778       0.00000000
Si      -1.66366416       1.80548586       0.30881587       0.00000000
Si       1.66901639      -3.23552795       0.36527681       0.00000000
Si       3.31469734       1.54798983      -0.24503083       0.00000000
Si       1.75905121       0.71237799      -3.36324246       0.00000000
Si      -0.98446890      -1.98096174      -3.16958351       0.00000000
Si      -2.87937057       1.11728223       2.32579855       0.00000000
Si      -0.61613993      -2.10517299       3.20417529       0.00000000
