10
Lattice="16.28999089631971 0.0 0.0 0.0 16.28999089631971 0.0 0.0 0.0 34.385447050020396" Properties=species:S:1:pos:R:3:initial_magmoms:R:1 pbc="T T T"
Si      -1.36130643      -1.32040224       1.40590137       0.00000000
Si       1.35789923       1.38883653       1.39768324       0.00000000
Si      -1.32265026       1.30302081      -1.60904382       0.00000000
Si       0.97409706      -1.93165191      -1.44013554       0.00000000
Si      -2.71718829      -2.66914908       0.02862934       0.00000000
Si       2.72180555      -2.70412371       0.01684888       0.00000000
Si      -2.69034237       2.74957281       0.01025375       0.00000000
Si       0.00369783      -2.68600923       2.76175469       0.00000000
Si      -2.71125873       0.02876814       2.76374904       0.00000000
Si       2.71846610       0.02839347       2.76058558       0.00000000
