10
Lattice="16.28999089631971 0.0 0.0 0.0 16.28999089631971 0.0 0.0 0.0 34.385447050020396" Properties=species:S:1:pos:R:3:initial_magmoms:R:1 pbc="T T T"
Si      -1.35966114      -1.35156501      -1.36637527       0.00000000
Si       1.35993807       1.36218803      -1.37057030       0.00000000
Si       1.34008056      -1.45777581       1.30076780       0.00000000
Si      -1.36042677       1.39708580       1.39257700       0.00000000
Si       2.70067579      -0.13651020       2.58956946       0.00000000
Si       2.68511395       2.72661761      -0.01065949       0.00000000
Si      -2.71187775      -2.71363707       0.00574237       0.00000000
Si      -2.71432125       2.71866483      -0.00763357       0.00000000
Si       0.00096111      -2.71370223      -2.72432611       0.00000000
Si       2.72068805      -2.71761183      -0.03115323       0.00000000
