10
Lattice="16.28999089631971 0.0 0.0 0.0 16.28999089631971 0.0 0.0 0.0 34.385447050020396" Properties=species:S:1:pos:R:3:initial_magmoms:R:1 pbc="T T T"
Si       0.18388152      -1.26125325      -1.93256636       0.00000000
Si      -2.05944696      -0.66863934       0.84739543       0.00000000
Si       1.22125285       2.05625412      -0.19613470       0.00000000
Si      -2.51559954       1.55779641       0.11845793       0.00000000
Si       0.08537589      -3.36388500      -0.99924165       0.00000000
Si       1.15530309       0.24286761      -3.41922199       0.00000000
Si       2.51589832       1.56413322      -2.13042033       0.00000000
Si      -1.36858806       3.14664744       1.47575544       0.00000000
Si       2.40335722      -0.43883631       2.92475899       0.00000000
Si      -2.70653463      -2.83864653      -0.16419060       0.00000000
