10
Lattice="16.28999089631971 0.0 0.0 0.0 16.28999089631971 0.0 0.0 0.0 34.385447050020396" Properties=species:S:1:pos:R:3:initial_magmoms:R:1 pbc="T T T"
Si       2.05944696       0.66863934      -0.84739543       0.00000000
Si      -0.45615258       2.22643575      -0.72893750       0.00000000
Si      -0.82347579      -0.08340480       2.30757426       0.00000000
Si      -0.64708767      -2.17000719      -1.01158603       0.00000000
Si      -0.20794185      -3.25927062       0.97761319       0.00000000
Si      -2.58230709       2.36429802       0.16013312       0.00000000
Si       2.24332848      -0.59261391      -2.77996179       0.00000000
Si       1.16144442       0.49317975       3.44260411       0.00000000
Si      -1.98298170       2.02217544       2.42359082       0.00000000
Si      -1.77727158      -2.32028244       2.40553845       0.00000000
