10
Lattice="16.28999089631971 0.0 0.0 0.0 16.28999089631971 0.0 0.0 0.0 34.385447050020396" Properties=species:S:1:pos:R:3:initial_magmoms:R:1 pbc="T T T"
Si       2.23686135       0.51044715      -0.29330803       0.00000000
Si      -1.09511154       0.84776418       1.88153833       0.00000000
Si      -0.28360890      -2.12255442       1.01667508       0.00000000
Si      -1.14005565       0.06476904      -2.07980493       0.00000000
Si      -2.10509154      -1.31100291       2.27525192       0.00000000
Si       2.92949586      -1.43962875      -1.49346396       0.00000000
Si      -2.90178657       2.01489381       0.93139912       0.00000000
Si       0.79744437       0.91663830       3.54713593       0.00000000
Si       3.34590084       0.29993148       1.76961364       0.00000000
Si      -0.12308724      -3.77719488      -0.65119196       0.00000000
