10
Lattice="16.28999089631971 0.0 0.0 0.0 16.28999089631971 0.0 0.0 0.0 34.385447050020396" Properties=species:S:1:pos:R:3:initial_magmoms:R:1 pbc="T T T"
Si       0.54161318      -1.91928780      -1.21459782       0.00000000
Si      -2.26970103       0.54550323      -0.45323483       0.00000000
Si       0.17177968      -0.53664147       2.31830252       0.00000000
Si       1.82152337       1.44254466      -0.56698195       0.00000000
Si       2.21204354      -2.75276565       0.16542848       0.00000000
Si      -2.08647111      -1.30393305       2.58179835       0.00000000
Si      -0.01559442       1.69420887       3.15569178       0.00000000
Si      -3.08939754       0.66404556       1.72962334       0.00000000
Si       1.61561777      -1.02615597      -3.16580111       0.00000000
Si       3.33636305       0.00539199      -1.65249674       0.00000000
