10
Lattice="16.28999089631971 0.0 0.0 0.0 16.28999089631971 0.0 0.0 0.0 34.385447050020396" Properties=species:S:1:pos:R:3:initial_magmoms:R:1 pbc="T T T"
Si      -1.96668585       0.94693770      -0.91867650       0.00000000
Si       1.60146664       1.62368946      -0.70125720       0.00000000
Si      -0.50740092      -0.31232817       2.31063456       0.00000000
Si       0.18737410      -2.23085034      -0.83738926       0.00000000
Si      -3.07380312      -1.03016331      -1.42606844       0.00000000
Si       0.01559442      -1.69420887      -3.15569178       0.00000000
Si      -2.07087669      -2.99814192      -0.57389343       0.00000000
Si      -2.96426916       2.13516288       0.80939949       0.00000000
Si       3.33449458       0.43807068      -1.90712112       0.00000000
Si      -0.40104677       1.70976582       3.49631421       0.00000000
