10
Lattice="16.28999089631971 0.0 0.0 0.0 16.28999089631971 0.0 0.0 0.0 34.385447050020396" Properties=species:S:1:pos:R:3:initial_magmoms:R:1 pbc="T T T"
Si       1.35048987      -1.34904006       1.35605963       0.00000000
Si      -1.35777696      -1.33732755      -1.38030139       0.00000000
Si      -1.36222586       1.36617714       1.35365265       0.00000000
Si       1.35588186       1.34806266      -1.39125316       0.00000000
Si      -0.39182663       2.12053446      -2.84823757       0.00000000
Si      -2.40397136       0.39185595      -2.73148172       0.00000000
Si       0.16432049      -2.60998380      -2.76267966       0.00000000
Si       2.71208952      -2.70596448       0.00089402       0.00000000
Si      -0.00570476      -2.70656721       2.71335714       0.00000000
Si       2.70948312       0.00706986       2.71215365       0.00000000
