10
Lattice="16.28999089631971 0.0 0.0 0.0 16.28999089631971 0.0 0.0 0.0 34.385447050020396" Properties=species:S:1:pos:R:3:initial_magmoms:R:1 pbc="T T T"
Si       1.35769005       1.35703845       1.35705681       0.00000000
Si      -1.35787087      -1.35658233       1.35736628       0.00000000
Si       1.35739683      -1.35860229      -1.35681611       0.00000000
Si      -1.35876030       1.35803214      -1.35740067       0.00000000
Si      -2.71160191      -0.00434943       2.71232558       0.00000000
Si      -0.00159642      -2.71471221      -2.71291013       0.00000000
Si       2.71523349       0.00019548       2.71246312       0.00000000
Si       2.71469592      -2.71456560       0.00020631       0.00000000
Si       2.71378368      -0.00329058      -2.71579851       0.00000000
Si      -2.71431215       0.00050499      -2.71531711       0.00000000
