10
Lattice="16.28999089631971 0.0 0.0 0.0 16.28999089631971 0.0 0.0 0.0 34.385447050020396" Properties=species:S:1:pos:R:3:initial_magmoms:R:1 pbc="T T T"
Si      -1.44265869       1.24103736       1.31445322       0.00000000
Si       1.34602641      -1.23600375       1.44700919       0.00000000
Si      -1.35853713      -1.35703845      -1.32831056       0.00000000
Si       1.35513252       1.35689184      -1.33271190       0.00000000
Si      -0.57260979      -2.19838437       2.43328752       0.00000000
Si       0.33976053       2.02385331       2.66607713       0.00000000
Si      -2.41567668      -0.51857586       2.52712546       0.00000000
Si       2.18787732       0.49215348       2.87445305       0.00000000
Si       2.71239903      -0.00001629      -2.68698349       0.00000000
Si      -0.00241092       2.71373481      -2.68811821       0.00000000
