10
Lattice="16.28999089631971 0.0 0.0 0.0 16.28999089631971 0.0 0.0 0.0 34.385447050020396" Properties=species:S:1:pos:R:3:initial_magmoms:R:1 pbc="T T T"
Si       1.09664280      -0.33806637      -1.86396736       0.00000000
Si      -0.96825642       1.58773743       1.32404676       0.00000000
Si      -0.21106953      -2.29763934       0.26762208       0.00000000
Si       2.71955034      -0.08938323       0.90007396       0.00000000
Si      -2.24216279      -2.31298452      -0.81390399       0.00000000
Si       1.49850081      -2.73771369      -1.33642553       0.00000000
Si      -2.66400863       0.21585879       2.32562663       0.00000000
Si       0.86037264       2.78995572      -2.38480401       0.00000000
Si       0.10389762       1.62610038       3.60737927       0.00000000
Si       3.51829791      -1.57053519      -0.94284949       0.00000000
