10
Lattice="16.28999089631971 0.0 0.0 0.0 16.28999089631971 0.0 0.0 0.0 34.385447050020396" Properties=species:S:1:pos:R:3:initial_magmoms:R:1 pbc="T T T"
Si      -0.28347858      -2.38829319       0.21851964       0.00000000
Si       2.33026821      -0.14112027       0.63080138       0.00000000
Si      -0.28080702       0.84207897      -2.35990894       0.00000000
Si      -1.57734930       1.21402854       1.70747910       0.00000000
Si      -1.22704425       2.98423026      -1.99879277       0.00000000
Si       1.42690626      -3.43230300      -1.20318185       0.00000000
Si       3.51675036       1.77391584      -0.13609768       0.00000000
Si       3.33099549      -2.08388196      -0.55436249       0.00000000
Si       0.18096561       3.97014993      -0.26363337       0.00000000
Si      -2.50036839      -3.11049405      -0.29244839       0.00000000
