10
Lattice="10.86 0.0 0.0 0.0 10.86 0.0 0.0 0.0 10.86" Properties=species:S:1:pos:R:3:initial_magmoms:R:1 pbc="T T T"
Si      -1.82067900       1.16663550       0.74834088       0.00000000
Si       1.17977610       1.20908724      -1.60537950       0.00000000
Si      -1.64160846      -1.40006034      -1.43929752       0.00000000
Si       2.37246474       2.59413906      -0.26966466       0.00000000
Si      -0.34253526       2.59413906       2.44533534       0.00000000
Si       0.27620238      -2.68243086       2.38669134       0.00000000
Si       2.37246474      -0.12086094      -2.98466466       0.00000000
Si      -3.05753526      -0.12086094       2.44533534       0.00000000
Si       3.57931482       0.99240852       1.34655312       0.00000000
Si      -0.34253526       2.59413906      -2.98466466       0.00000000
