10
Lattice="10.86 0.0 0.0 0.0 10.86 0.0 0.0 0.0 10.86" Properties=species:S:1:pos:R:3:initial_magmoms:R:1 pbc="T T T"
Si      -1.16545176       1.49914698      -1.39040580       0.00000000
Si       1.54954824      -1.21585302      -1.39040580       0.00000000
Si       1.54954824       1.49914698       1.32459420       0.00000000
Si      -2.51101662      -2.33197866       0.02031906       0.00000000
Si       0.18733500      -2.52519978       2.58419130       0.00000000
Si      -2.35814040       2.82909516      -0.01112064       0.00000000
Si      -2.52295176       0.14164698      -2.74790580       0.00000000
Si       0.19204824      -2.57335302      -2.74790580       0.00000000
Si       2.90704824      -2.57335302      -0.03290580       0.00000000
Si       0.04139832       2.61241644       2.94081198       0.00000000
