10
Lattice="10.86 0.0 0.0 0.0 10.86 0.0 0.0 0.0 10.86" Properties=species:S:1:pos:R:3:initial_magmoms:R:1 pbc="T T T"
Si      -1.39035150      -1.18554276       1.29916008       0.00000000
Si       1.32464850       1.52945724       1.29916008       0.00000000
Si      -1.39035150       1.52945724      -1.41583992       0.00000000
Si       2.53149858      -0.07227330      -2.51462214       0.00000000
Si      -0.03285150      -2.54304276       2.65666008       0.00000000
Si       2.68214850       0.17195724       2.65666008       0.00000000
Si       2.77569654      -2.56567500      -0.00716760       0.00000000
Si      -2.70571470      -2.66189460      -0.01946112       0.00000000
Si      -2.74785150       0.17195724       2.65666008       0.00000000
Si      -0.03285150       2.88695724       2.65666008       0.00000000
