10
Lattice="16.290000149 0.0 0.0 0.0 16.290000149 0.0 0.0 0.0 29.1751946751" Properties=species:S:1:pos:R:3:initial_magmoms:R:1 pbc="T T T"
Si      -1.33529131      -1.36061412       1.37056312       0.00000000
Si       1.34881201      -1.35084175      -1.37234281       0.00000000
Si       1.36133902       1.34399017       1.36787900       0.00000000
Si      -1.37047771       1.34216569      -1.36373612       0.00000000
Si      -2.69680952      -2.70591563      -0.00583504       0.00000000
Si       2.71396289       2.69247638      -0.00530989       0.00000000
Si      -0.00869886       2.72989451       2.67909978       0.00000000
Si       2.72551250      -2.69533395      -0.03652734       0.00000000
Si      -0.02182860       2.70801704      -2.71912814       0.00000000
Si       0.06802704      -2.69969285       2.72758895       0.00000000
