10
Lattice="16.290000149 0.0 0.0 0.0 16.290000149 0.0 0.0 0.0 29.1751946751" Properties=species:S:1:pos:R:3:initial_magmoms:R:1 pbc="T T T"
H        0.46459080       1.28120851      -0.65755054       0.00000000
Si      -0.80585002       0.99807202       1.93939189       0.00000000
Si      -1.85520296      -0.70846840      -1.29593297       0.00000000
Si       1.99997219      -1.37614663      -0.08125292       0.00000000
H        0.97177996      -0.24724962      -2.49071554       0.00000000
H       -0.65717119      -2.67305870      -1.07688561       0.00000000
Si       3.13100645       0.68968603      -0.65635435       0.00000000
Si      -2.28506348       2.31943538       0.63648605       0.00000000
Si       0.78747490      -2.95893192      -1.50917447       0.00000000
Si       2.01357434       0.85628386      -2.69931819       0.00000000
