10
Lattice="16.290000149 0.0 0.0 0.0 16.290000149 0.0 0.0 0.0 29.1751946751" Properties=species:S:1:pos:R:3:initial_magmoms:R:1 pbc="T T T"
Si       1.36980982       1.34719930       1.33849958       0.00000000
Si       1.44085051      -1.33361181      -1.28166630       0.00000000
Si      -1.34858395      -1.38868342       1.33424000       0.00000000
Si      -1.37920915       1.33863076      -1.35833871       0.00000000
Si       0.11425806      -2.66827661      -2.61906890       0.00000000
Si       0.02951748       2.74429488      -2.61543658       0.00000000
Si       0.00597843       2.69576696       2.68767728       0.00000000
Si      -2.70928766      -0.02441871       2.67927483       0.00000000
Si       2.69671178      -0.03464883       2.69858881       0.00000000
Si      -2.79924105      -0.08975790      -2.59411243       0.00000000
