10
Lattice="16.290000149 0.0 0.0 0.0 16.290000149 0.0 0.0 0.0 29.1751946751" Properties=species:S:1:pos:R:3:initial_magmoms:R:1 pbc="T T T"
Si      -1.36979353      -1.35632170      -1.32706291       0.00000000
Si      -1.43984053       1.33172380       1.27892383       0.00000000
Si       1.35189082       1.35448093      -1.35994335       0.00000000
Si       1.36244674      -1.32418153       1.38281670       0.00000000
Si      -0.08718408       2.67289580       2.58693534       0.00000000
Si      -0.09350460      -2.61470792       2.69444593       0.00000000
Si       0.00066789      -2.71191035      -2.66001920       0.00000000
Si      -2.71340903       0.02757897      -2.66926774       0.00000000
Si       2.72935695      -0.01194057      -2.67125165       0.00000000
Si       2.72992709       2.69423570      -0.02824159       0.00000000
