10
Lattice="16.290000149 0.0 0.0 0.0 16.290000149 0.0 0.0 0.0 29.1751946751" Properties=species:S:1:pos:R:3:initial_magmoms:R:1 pbc="T T T"
Si      -1.37686828       1.45461231      -1.16093935       0.00000000
Si       1.52378290      -1.25683867      -1.22200303       0.00000000
Si       0.85537162       1.65843116       1.39466183       0.00000000
Si      -0.91026892      -1.74319292       1.27437250       0.00000000
H        0.23434794       2.96253201       0.96076834       0.00000000
Si       2.57088782      -2.09807057       0.71546330       0.00000000
Si       0.11241729      -2.65336409      -2.52286661       0.00000000
Si      -2.61278131       0.09780027      -2.60759137       0.00000000
Si       0.09588294       1.06337537       3.54262719       0.00000000
Si      -1.19977317      -0.91737136       3.42534291       0.00000000
