10
Lattice="16.290000149 0.0 0.0 0.0 16.290000149 0.0 0.0 0.0 29.1751946751" Properties=species:S:1:pos:R:3:initial_magmoms:R:1 pbc="T T T"
Si       0.34461495      -0.90113023      -2.10081824       0.00000000
Si      -1.82544113       1.43428564       0.25776284       0.00000000
Si       1.60474420       1.69031558       0.17942745       0.00000000
Si       0.20758347      -1.33512841       1.99243239       0.00000000
H       -0.19572435       0.04665456       2.60992539       0.00000000
H       -0.90517015      -1.72555085       2.92997728       0.00000000
Si       1.39685122       0.88321123      -3.24194763       0.00000000
Si       1.09315675       2.74328490       2.20409843       0.00000000
Si       0.44393508      -3.57107754       1.04280898       0.00000000
Si      -3.64939986       0.12859326       0.92038987       0.00000000
