10
Lattice="16.290000149 0.0 0.0 0.0 16.290000149 0.0 0.0 0.0 29.1751946751" Properties=species:S:1:pos:R:3:initial_magmoms:R:1 pbc="T T T"
Si      -1.43332453       1.31861035      -1.28420454       0.00000000
Si      -1.37733580      -1.31878954       1.36353190       0.00000000
Si       1.33690402       1.40274820       1.33867463       0.00000000
Si       1.34439742      -1.28057320      -1.45928489       0.00000000
Si      -0.07881102       2.65970090      -2.59972282       0.00000000
Si       2.68687262      -2.61583193      -0.03856961       0.00000000
Si      -0.01935252      -2.68858307       2.70112705       0.00000000
Si      -2.75169054      -2.64407879      -0.00037928       0.00000000
Si       2.70264134       0.06419889       2.70101035       0.00000000
Si      -2.74479987       0.06154362       2.68528492       0.00000000
