10
Lattice="16.290000149 0.0 0.0 0.0 16.290000149 0.0 0.0 0.0 29.1751946751" Properties=species:S:1:pos:R:3:initial_magmoms:R:1 pbc="T T T"
Si      -1.46766548      -1.38222280       1.21322130       0.00000000
Si       1.33305958      -1.32763501      -1.41639735       0.00000000
Si      -1.34786393       1.35498592      -1.38445051       0.00000000
Si       1.41136561       1.39652542       1.30086358       0.00000000
Si      -0.11241729       2.65336409       2.52286661       0.00000000
Si      -0.05535342      -2.61115670       2.59107821       0.00000000
Si      -2.80292259      -0.08063550       2.63988831       0.00000000
Si       2.75944458       2.69045642      -0.06751140       0.00000000
Si      -0.01246185       2.70703964      -2.75466353       0.00000000
Si       2.74797642      -2.71039538      -0.17306725       0.00000000
