10
Lattice="16.290000149 0.0 0.0 0.0 16.290000149 0.0 0.0 0.0 29.1751946751" Properties=species:S:1:pos:R:3:initial_magmoms:R:1 pbc="T T T"
Si       1.05033034      -1.11013419      -0.01945985       0.00000000
Si      -1.87405049       1.84880424      -0.71940195       0.00000000
Si      -0.34876890       2.57212912       0.89824589       0.00000000
H        1.21031443       2.14702528      -1.72361215       0.00000000
Si      -0.27261315       1.11045999       2.82888523       0.00000000
Si      -1.84213838      -0.57953956       2.38842731       0.00000000
Si       2.90991368      -0.20361523       1.10579823       0.00000000
Si      -1.22144050       0.80125950      -2.77266463       0.00000000
Si       1.33371118      -1.84975884      -2.22668003       0.00000000
Si       0.22426443      -3.03345541       1.01713481       0.00000000
