10
Lattice="16.290000149 0.0 0.0 0.0 16.290000149 0.0 0.0 0.0 29.1751946751" Properties=species:S:1:pos:R:3:initial_magmoms:R:1 pbc="T T T"
Si       1.39152439       1.34271955       1.27626597       0.00000000
Si       1.25563321      -1.40454010      -1.36162092       0.00000000
Si      -1.31709538       1.26141616      -1.47308475       0.00000000
Si      -1.40872663      -1.40566411       1.25709787       0.00000000
Si      -2.17311860      -0.67337974      -2.51701407       0.00000000
Si      -0.46846782      -2.34229025      -2.64017540       0.00000000
Si      -0.03187953       2.70524774       2.54448251       0.00000000
Si       2.57460194      -0.07716573      -2.72473416       0.00000000
Si       2.72353001      -0.06452469       2.58669902       0.00000000
Si       2.68276754       2.65859318      -0.19302017       0.00000000
