10
Lattice="16.290000149 0.0 0.0 0.0 16.290000149 0.0 0.0 0.0 29.1751946751" Properties=species:S:1:pos:R:3:initial_magmoms:R:1 pbc="T T T"
Si      -1.33540208      -1.35205372       1.37021302       0.00000000
Si       1.34811154      -1.36086661      -1.36452385       0.00000000
Si      -1.40734850       1.33665316      -1.33388990       0.00000000
Si       1.34570062       1.34577556       1.38847669       0.00000000
Si       2.65191428       2.69755886      -0.03127581       0.00000000
Si      -2.71273675       0.04412472       2.66993877       0.00000000
Si      -0.06152733       2.69151527      -2.70967538       0.00000000
Si       2.71171487      -0.00935046      -2.71215527       0.00000000
Si      -2.71485538      -2.70925508       0.00968616       0.00000000
Si      -0.07192035       2.69964398       2.72569256       0.00000000
