10
Lattice="16.290000149 0.0 0.0 0.0 16.290000149 0.0 0.0 0.0 29.1751946751" Properties=species:S:1:pos:R:3:initial_magmoms:R:1 pbc="T T T"
Si      -1.39152439      -1.34271955      -1.27626597       0.00000000
Si       1.33200562      -1.40724424       1.31043304       0.00000000
Si      -1.42340392       1.36252819       1.26821654       0.00000000
Si       1.29124315       1.31587363      -1.46928614       0.00000000
Si       2.62692705       2.67458996      -0.09274794       0.00000000
Si       2.66871579      -0.03127680       2.65453426       0.00000000
Si      -0.06478533       2.71062344       2.62197475       0.00000000
Si      -0.13589118      -2.74725966      -2.63788690       0.00000000
Si      -2.74574469      -0.02575449       2.65071231       0.00000000
Si       2.68101148      -2.73505844      -0.09502361       0.00000000
