10
Lattice="16.290000149 0.0 0.0 0.0 16.290000149 0.0 0.0 0.0 29.1751946751" Properties=species:S:1:pos:R:3:initial_magmoms:R:1 pbc="T T T"
Si      -1.34605412      -1.34853508       1.36706210       0.00000000
Si       1.35014779      -1.37033110      -1.35874717       0.00000000
Si      -1.36938954       1.34783461      -1.36822910       0.00000000
Si       1.33190299       1.34521192       1.41415086       0.00000000
Si      -2.64884916       2.69415425       0.08679620       0.00000000
Si       0.04030146       2.74162332      -2.62238028       0.00000000
Si       2.70311375       0.02689479      -2.67937111       0.00000000
Si      -2.71283888      -2.67726152      -0.01129080       0.00000000
Si       2.71819829       2.70469388       0.10966956       0.00000000
Si      -2.67417599       0.00247608       2.75752270       0.00000000
