10
Lattice="16.290000149 0.0 0.0 0.0 16.290000149 0.0 0.0 0.0 29.1751946751" Properties=species:S:1:pos:R:3:initial_magmoms:R:1 pbc="T T T"
Si      -1.33315732      -1.34220153       1.32636270       0.00000000
Si       1.49599216      -1.23707239      -1.28028048       0.00000000
Si      -1.24934527       1.37073835      -1.41309764       0.00000000
Si       1.42003189       1.42838866       1.23577372       0.00000000
Si       0.65563993       2.16067304      -2.53833821       0.00000000
H       -0.55563562      -0.45851463      -3.33119455       0.00000000
Si       2.36029070       0.49176252      -2.66149955       0.00000000
Si      -2.66102039       0.07908795       2.61298879       0.00000000
Si       0.10243152      -2.68604183       2.58915265       0.00000000
Si      -2.69377958      -2.62451294      -0.08516239       0.00000000
