10
Lattice="16.290000149 0.0 0.0 0.0 16.290000149 0.0 0.0 0.0 29.1751946751" Properties=species:S:1:pos:R:3:initial_magmoms:R:1 pbc="T T T"
Si       1.38629530       1.35948196      -1.30448130       0.00000000
Si       1.38367261      -1.34420194       1.33619474       0.00000000
Si      -1.31632975       1.37150398       1.38879762       0.00000000
Si      -1.33190299      -1.34521192      -1.41415086       0.00000000
Si       0.01356957       2.72175929      -2.61386404       0.00000000
Si       0.01607823      -2.68960934       2.67761184       0.00000000
Si      -2.67795711      -2.69374700      -0.04708876       0.00000000
Si      -2.66472311       2.73177275       0.03550621       0.00000000
Si       2.70896186       0.00697212      -2.68954450       0.00000000
Si      -2.69110477       0.02254536       2.73817955       0.00000000
