10
Lattice="16.290000149 0.0 0.0 0.0 16.290000149 0.0 0.0 0.0 29.1751946751" Properties=species:S:1:pos:R:3:initial_magmoms:R:1 pbc="T T T"
Si      -1.31896873      -1.32737437       1.36311323       0.00000000
Si       1.26226650      -1.42938235      -1.32481496       0.00000000
Si      -1.14670198       1.49602474      -1.38234844       0.00000000
Si       1.50830089       1.38329794       1.16662122       0.00000000
Si       1.93852631       0.32571855      -2.83317252       0.00000000
H       -2.32956776       0.97042789      -2.44073698       0.00000000
Si       0.52210754       2.27229212      -2.82911717       0.00000000
Si       0.10816560       2.73575891       2.53171399       0.00000000
Si       0.13475642      -2.70912476       2.58775954       0.00000000
Si      -2.57460194       0.07716573       2.72473416       0.00000000
