10
Lattice="16.290000149 0.0 0.0 0.0 16.290000149 0.0 0.0 0.0 29.1751946751" Properties=species:S:1:pos:R:3:initial_magmoms:R:1 pbc="T T T"
Si       1.30406338       1.30026781      -1.49015224       0.00000000
Si       1.24453972      -1.64962316       1.16429449       0.00000000
Si      -0.99419500       1.77036464       1.26573665       0.00000000
Si      -1.28894626      -1.67492153      -1.18611754       0.00000000
H        0.20274534      -2.75315664       1.37289714       0.00000000
H       -3.01281924      -1.03434985       0.29735358       0.00000000
H       -2.46741374      -1.17682219      -2.00290629       0.00000000
H       -0.30444381      -1.22469850       3.20606214       0.00000000
H       -1.84911050       0.50011929      -3.08104643       0.00000000
Si      -2.52579710       2.77612554      -0.23100919       0.00000000
