10
Lattice="16.290000149 0.0 0.0 0.0 16.290000149 0.0 0.0 0.0 29.1751946751" Properties=species:S:1:pos:R:3:initial_magmoms:R:1 pbc="T T T"
Si       1.43933554       1.39276243       1.16155203       0.00000000
Si       1.43275438      -1.32261769      -1.28146208       0.00000000
Si      -1.32116788       1.44072019      -1.27463508       0.00000000
Si      -1.38435679      -1.34395759       1.33371485       0.00000000
Si       0.05471811      -2.66237246      -2.61316384       0.00000000
Si      -2.67082697       0.07926714      -2.62212062       0.00000000
Si      -2.57411324       0.10507050       2.73841295       0.00000000
Si       0.01008351      -2.62225019       2.69987252       0.00000000
Si       2.73199592       0.10075365       2.59172007       0.00000000
Si       0.06698448       2.80161939      -2.58632266       0.00000000
