10
Lattice="16.290000149 0.0 0.0 0.0 16.290000149 0.0 0.0 0.0 29.1751946751" Properties=species:S:1:pos:R:3:initial_magmoms:R:1 pbc="T T T"
H       -0.06545322      -1.08002701      -1.05614205       0.00000000
Si       2.19331494       0.19018575       0.66443588       0.00000000
Si      -1.62453655      -0.65492317       1.56571600       0.00000000
Si      -0.45414891       2.12999897      -0.89640786       0.00000000
H       -1.89879500       2.41587218      -0.46411900       0.00000000
H        1.10001647       0.74979613      -2.99264559       0.00000000
Si      -3.14981814      -1.37824804      -0.05193185       0.00000000
H       -1.27576765      -3.22705229       0.66747010       0.00000000
Si       3.01216764      -2.06612588       0.43258061       0.00000000
Si       3.51479559      -0.07861554      -1.24438040       0.00000000
