10
Lattice="16.290000149 0.0 0.0 0.0 16.290000149 0.0 0.0 0.0 29.1751946751" Properties=species:S:1:pos:R:3:initial_magmoms:R:1 pbc="T T T"
Si      -1.37232989       1.40022325      -1.30456883       0.00000000
Si       1.17981955       1.47051460       1.44334356       0.00000000
Si      -1.48637129      -1.19676115       1.43555670       0.00000000
Si       1.00217710      -1.24980139      -1.84019623       0.00000000
Si      -2.47256464      -0.30776697      -2.56018168       0.00000000
Si      -1.05614587      -2.25434054      -2.56423704       0.00000000
Si       2.40572351       0.47700378      -2.75075405       0.00000000
Si      -0.12399948      -2.53412129       2.81384833       0.00000000
Si       2.55319688       0.12155598       2.80624236       0.00000000
Si       2.47912625       2.95163400       0.16461141       0.00000000
