10
Lattice="16.290000149 0.0 0.0 0.0 16.290000149 0.0 0.0 0.0 29.1751946751" Properties=species:S:1:pos:R:3:initial_magmoms:R:1 pbc="T T T"
Si      -0.75755017       1.31320207      -1.78738913       0.00000000
Si      -1.50431635      -1.84848333      -0.06412708       0.00000000
Si       1.98607682      -0.90830109      -0.97144646       0.00000000
Si      -0.65260999       1.04754475       2.05326268       0.00000000
H        2.43175493       1.34576578       1.04905247       0.00000000
H        1.22144050      -0.80125950       2.77266463       0.00000000
Si      -2.51250446       2.29032515      -0.51990197       0.00000000
Si       0.79001614      -2.05610916      -2.66016508       0.00000000
Si      -0.64624060      -0.42837813      -3.58799462       0.00000000
Si       2.55515168      -2.65101833       0.54598459       0.00000000
