10
Lattice="16.290000149 0.0 0.0 0.0 16.290000149 0.0 0.0 0.0 29.1751946751" Properties=species:S:1:pos:R:3:initial_magmoms:R:1 pbc="T T T"
Si      -1.19606068      -1.14780807      -1.68871862       0.00000000
Si       0.56907487      -1.74271725       1.51743105       0.00000000
Si      -1.98607682       0.90830109       0.97144646       0.00000000
Si       1.43786423       1.41933468      -1.34328431       0.00000000
H        0.44567811       2.25406687       2.02049893       0.00000000
Si      -2.48725496      -2.58494284      -0.40521428       0.00000000
Si      -2.74362699       2.22150316      -0.81594267       0.00000000
Si      -3.49039317      -0.94018225       0.90731938       0.00000000
Si      -2.63231741       0.47992295      -2.61654816       0.00000000
H       -0.76463632       0.10704159       3.74411108       0.00000000
