10
Lattice="16.290000149 0.0 0.0 0.0 16.290000149 0.0 0.0 0.0 29.1751946751" Properties=species:S:1:pos:R:3:initial_magmoms:R:1 pbc="T T T"
Si       1.49393962      -1.26894214      -1.27597714       0.00000000
Si      -1.34276842       1.41480280      -1.36945446       0.00000000
Si      -1.39623220      -1.81221365       0.75382868       0.00000000
Si       1.06971544       1.68163301       1.38748473       0.00000000
H        2.95854259       0.05017320       1.65376673       0.00000000
Si      -2.47111157       2.53412129       0.37860650       0.00000000
Si       0.06551838      -2.53887797      -2.68015008       0.00000000
Si      -0.60380515       3.36313569       1.63141854       0.00000000
Si       2.78525901      -2.61438212       0.22648704       0.00000000
Si      -3.15118650      -0.83509057       2.02131584       0.00000000
