10
Lattice="16.290000149 0.0 0.0 0.0 16.290000149 0.0 0.0 0.0 29.1751946751" Properties=species:S:1:pos:R:3:initial_magmoms:R:1 pbc="T T T"
Si       1.36226755       1.35389449       1.35227027       0.00000000
Si      -1.32902944      -1.35837424       1.38354608       0.00000000
Si       1.37826433      -1.35979147      -1.33514443       0.00000000
Si      -1.37081817       1.34749252      -1.36373612       0.00000000
Si      -2.66573961      -2.73434168       0.03944486       0.00000000
Si      -0.00482184       2.70853832       2.70343189       0.00000000
Si       2.71648784       2.69892722      -0.02263995       0.00000000
Si      -0.02365308       2.67546962      -2.74425966       0.00000000
Si      -2.71627607       0.00353493       2.70570755       0.00000000
Si       0.05600502      -2.70104492      -2.72707547       0.00000000
