10
Lattice="16.290000149 0.0 0.0 0.0 16.290000149 0.0 0.0 0.0 29.1751946751" Properties=species:S:1:pos:R:3:initial_magmoms:R:1 pbc="T T T"
Si       1.83184310       1.02586276      -0.93899781       0.00000000
Si       1.40678812      -1.35975889       1.25718540       0.00000000
Si      -1.31818681       1.49089496       1.21001786       0.00000000
Si      -1.30538287      -1.18482058      -1.55361879       0.00000000
Si       0.99733897       2.27134730      -2.65155256       0.00000000
Si      -2.66672189       0.09645309       2.52228894       0.00000000
Si      -2.62679510      -2.58706379      -0.20965878       0.00000000
Si       0.05227461      -2.70084944       2.57270368       0.00000000
Si       2.74035270      -2.51309090      -0.30311860       0.00000000
Si       2.82975222       0.09876627       2.48322335       0.00000000
