10
Lattice="16.290000149 0.0 0.0 0.0 16.290000149 0.0 0.0 0.0 29.1751946751" Properties=species:S:1:pos:R:3:initial_magmoms:R:1 pbc="T T T"
H       -0.62102368       1.30410085      -0.43389350       0.00000000
Si      -0.85537162      -1.65843116      -1.39466183       0.00000000
Si       2.30969396       0.09308595      -0.35194037       0.00000000
Si      -0.75948868      -0.59505579       2.14796536       0.00000000
H        1.39009087       1.65871786      -1.85641764       0.00000000
Si       2.38290122      -1.98990008       0.92984263       0.00000000
Si      -2.23223990      -0.20381885      -2.55560118       0.00000000
Si      -2.13863919       2.78616506       0.18634197       0.00000000
Si       1.31220838      -1.30250280       2.99392930       0.00000000
Si       0.48689181       2.56072775      -2.66489146       0.00000000
