10
Lattice="16.290000149 0.0 0.0 0.0 16.290000149 0.0 0.0 0.0 29.1751946751" Properties=species:S:1:pos:R:3:initial_magmoms:R:1 pbc="T T T"
Si       1.29051010       1.22611573      -1.52163228       0.00000000
Si       1.45052677      -1.31867551       1.31057892       0.00000000
Si      -1.51281973       1.32535441       1.24251319       0.00000000
Si      -1.43493724      -1.41136561      -1.31898138       0.00000000
Si       2.49668687      -2.79544548      -0.18214074       0.00000000
Si      -2.82043434      -0.16679331       2.52438372       0.00000000
Si      -0.12440673       2.60887610      -2.76496237       0.00000000
Si       0.13574457      -2.70875009       2.67265206       0.00000000
Si       2.48026655      -0.22291236      -2.92633038       0.00000000
Si       3.17106030       2.15638877      -0.46881620       0.00000000
