10
Lattice="16.290000149 0.0 0.0 0.0 16.290000149 0.0 0.0 0.0 29.1751946751" Properties=species:S:1:pos:R:3:initial_magmoms:R:1 pbc="T T T"
Si       0.28950425      -0.82582156      -2.15097040       0.00000000
Si      -2.26426278       0.50145507      -0.12653282       0.00000000
Si       1.29565611       1.98074673       0.11728428       0.00000000
Si       1.01727630      -1.55333296       1.48913111       0.00000000
Si      -2.54764362       1.24107973       2.08068736       0.00000000
Si       2.54653264      -0.21357819       2.67644483       0.00000000
Si       3.36735317       1.27329972       0.96324823       0.00000000
Si       1.19977317       0.91737136      -3.42534291       0.00000000
Si       1.94670226      -2.48639159      -2.04725259       0.00000000
Si       2.30736286      -2.98752087       0.17335901       0.00000000
