10
Lattice="16.290000149 0.0 0.0 0.0 16.290000149 0.0 0.0 0.0 29.1751946751" Properties=species:S:1:pos:R:3:initial_magmoms:R:1 pbc="T T T"
Si      -1.41231206       1.22893390      -1.37785692       0.00000000
Si      -1.30761460      -1.49214772       1.28187053       0.00000000
Si       1.51281973      -1.32535441      -1.24251319       0.00000000
Si       0.68986522       1.86075785       1.30987872       0.00000000
Si       0.05535342       2.61115670      -2.59107821       0.00000000
Si       0.23144832      -2.60178995       2.65354231       0.00000000
Si      -2.74756917       2.53052120       0.04881010       0.00000000
Si       0.07788249      -2.73672003      -2.56149457       0.00000000
Si      -2.69671178      -0.17917371      -2.70054354       0.00000000
Si      -0.96733279       3.52132788       1.20616090       0.00000000
