10
Lattice="16.290000149 0.0 0.0 0.0 16.290000149 0.0 0.0 0.0 29.1751946751" Properties=species:S:1:pos:R:3:initial_magmoms:R:1 pbc="T T T"
Si      -1.36498798      -1.35081568       1.35130457       0.00000000
Si       1.30614850       1.29441970       1.47544503       0.00000000
Si      -1.37292121       1.40820535      -1.30691743       0.00000000
Si       1.36459702      -1.34509789      -1.39089240       0.00000000
Si       2.66066201       2.63551025       0.15992675       0.00000000
Si       2.71217099      -2.70896186      -0.01377069       0.00000000
Si      -2.72601749       0.02347389       2.70121166       0.00000000
Si      -0.01221750      -2.66826944       2.75927029       0.00000000
Si      -2.70930395      -2.72082098      -0.01082983       0.00000000
Si      -2.78337459       0.10925703      -2.65246078       0.00000000
