10
Lattice="16.290000149 0.0 0.0 0.0 16.290000149 0.0 0.0 0.0 29.1751946751" Properties=species:S:1:pos:R:3:initial_magmoms:R:1 pbc="T T T"
Si       1.44090285      -1.34796493       1.28650938       0.00000000
Si      -1.25732737      -1.36590022      -1.45846798       0.00000000
Si       1.37707516       1.32752098      -1.38859339       0.00000000
Si      -1.42679224       1.28453167       1.41190437       0.00000000
Si       0.09337428      -2.76105729       2.58880255       0.00000000
Si      -2.69249267       2.67391067      -0.01788439       0.00000000
Si      -0.02640609       2.69774294       2.67294381       0.00000000
Si      -2.71663445      -0.31143222       2.68236740       0.00000000
Si      -2.59221143      -2.81727408      -0.20705636       0.00000000
Si       2.74840973       2.69794331      -0.05706668       0.00000000
