10
Lattice="16.290000149 0.0 0.0 0.0 16.290000149 0.0 0.0 0.0 29.1751946751" Properties=species:S:1:pos:R:3:initial_magmoms:R:1 pbc="T T T"
Si       1.36498798       1.35081568      -1.35130457       0.00000000
Si      -1.34431597      -1.37000530      -1.36213441       0.00000000
Si       1.35277048      -1.31745376       1.40796572       0.00000000
Si      -1.36102951       1.37428957       1.34990708       0.00000000
Si       2.67113648       2.64523538       0.12414045       0.00000000
Si      -2.69925302      -2.68442912       0.03740260       0.00000000
Si       0.08335593      -2.74346409      -2.65666989       0.00000000
Si      -0.00793323       2.75902104      -2.65822201       0.00000000
Si       2.77057065      -2.64828161       0.10599348       0.00000000
Si      -2.71524980       0.02925684       2.72481731       0.00000000
