10
Lattice="16.290000149 0.0 0.0 0.0 16.290000149 0.0 0.0 0.0 29.1751946751" Properties=species:S:1:pos:R:3:initial_magmoms:R:1 pbc="T T T"
Si      -1.36013356      -1.44829504       1.19743752       0.00000000
Si      -1.56794509       1.27092952      -1.15790513       0.00000000
Si       1.08978472      -1.12660012      -1.84363890       0.00000000
Si       1.57675798       1.10179045       1.48495906       0.00000000
Si       2.11981772      -2.46036017      -0.22873353       0.00000000
Si       0.33806637      -3.04939029       1.21450500       0.00000000
Si       0.11907990       2.28405350      -2.50235645       0.00000000
Si      -2.51902046       2.71590140       0.37787712       0.00000000
Si       1.87563062       0.72068590      -3.13691693       0.00000000
Si      -2.95542957      -2.27038619      -0.35229048       0.00000000
