10
Lattice="16.290000149 0.0 0.0 0.0 16.290000149 0.0 0.0 0.0 29.1751946751" Properties=species:S:1:pos:R:3:initial_magmoms:R:1 pbc="T T T"
Si      -0.70692085      -0.06566499      -1.33126413       0.00000000
H       -2.15000309       0.61077727       0.29948337       0.00000000
H        1.16137927       1.58053726      -1.17587705       0.00000000
Si      -1.53917695       0.79632037       1.67894493       0.00000000
H        1.82597870       1.18032454      -1.11592202       0.00000000
Si       0.35161965       2.32769441       1.95838494       0.00000000
Si       0.26621118      -2.70262505       1.43574051       0.00000000
Si       2.25647453      -2.10992969       0.26453149       0.00000000
Si       0.89754643      -0.87739570      -2.85418012       0.00000000
Si      -1.03586482      -1.21362130       2.76399959       0.00000000
