10
Lattice="16.290000149 0.0 0.0 0.0 16.290000149 0.0 0.0 0.0 29.1751946751" Properties=species:S:1:pos:R:3:initial_magmoms:R:1 pbc="T T T"
Si       1.35874891       1.36366849      -1.34328431       0.00000000
Si      -1.36661698      -1.35452980      -1.34628936       0.00000000
Si       1.35207001      -1.37658646       1.34086277       0.00000000
Si      -1.37347507       1.36505314       1.33190599       0.00000000
Si       2.72621297      -0.01666467      -2.66503733       0.00000000
Si      -0.02588481       2.70084944      -2.69345397       0.00000000
Si       0.00219915      -2.71819829      -2.68222152       0.00000000
Si       2.73010629      -0.03683169       2.67256453       0.00000000
Si      -0.02381598       2.72650620       2.67939153       0.00000000
Si      -2.71322984      -2.70348842       0.03153839       0.00000000
