10
Lattice="16.290000149 0.0 0.0 0.0 16.290000149 0.0 0.0 0.0 29.1751946751" Properties=species:S:1:pos:R:3:initial_magmoms:R:1 pbc="T T T"
Si      -1.33345054      -1.35304904      -1.38383783       0.00000000
Si       1.33485148      -1.36510364       1.37085487       0.00000000
Si       1.35022924       1.35247563      -1.37216776       0.00000000
Si      -1.36935370       1.34092602       1.36501983       0.00000000
Si       0.00526167       2.72298593       2.67495690       0.00000000
Si      -2.69475698       2.70462710      -0.02727881       0.00000000
Si       2.70189526      -2.70601500      -0.01003627       0.00000000
Si       2.70618605       0.00531869       2.70238158       0.00000000
Si      -2.69166188      -2.71751574      -0.04262496       0.00000000
Si      -2.69506649      -0.00155895      -2.73651656       0.00000000
