10
Lattice="16.290000149 0.0 0.0 0.0 16.290000149 0.0 0.0 0.0 29.1751946751" Properties=species:S:1:pos:R:3:initial_magmoms:R:1 pbc="T T T"
Si       1.31818681      -1.49089496      -1.21001786       0.00000000
Si      -1.34853508      -1.39444187       1.31227108       0.00000000
Si       1.36062226       1.28231141       1.41152509       0.00000000
Si      -1.38440566       1.33035062      -1.35870924       0.00000000
Si       2.69377958       2.62451294       0.08516239       0.00000000
Si      -2.69920415       2.65209191       0.04193934       0.00000000
Si      -2.67120164      -0.04193202       2.69733427       0.00000000
Si       0.03275919       2.70360089       2.69815118       0.00000000
Si       0.03705975      -2.74949295       2.65246282       0.00000000
Si      -2.68628618      -2.71973112      -0.09170639       0.00000000
