10
Lattice="16.290000149 0.0 0.0 0.0 16.290000149 0.0 0.0 0.0 29.1751946751" Properties=species:S:1:pos:R:3:initial_magmoms:R:1 pbc="T T T"
Si      -0.71933383       2.19183092       0.39958347       0.00000000
Si       1.90355168       0.54585673       1.28227898       0.00000000
Si      -1.62171838      -1.48229716       0.95198660       0.00000000
Si       0.72884719       0.35036044      -2.26825469       0.00000000
H        1.49783293      -2.13564020      -1.25570038       0.00000000
H        1.72616987       1.93140269       1.89781724       0.00000000
Si       2.55368558       1.65716054      -1.67162195       0.00000000
Si       1.22344417       3.21308361      -0.50899045       0.00000000
H       -0.25226694      -2.61287204      -2.53386566       0.00000000
Si      -0.39917016      -2.91031115       2.38021274       0.00000000
