10
Lattice="16.290000149 0.0 0.0 0.0 16.290000149 0.0 0.0 0.0 29.1751946751" Properties=species:S:1:pos:R:3:initial_magmoms:R:1 pbc="T T T"
Si      -1.33880995      -1.34912152       1.37292631       0.00000000
Si       1.32307381      -1.37197639      -1.37196353       0.00000000
Si      -1.36142047       1.32564763      -1.39019803       0.00000000
Si       1.34773687       1.32442588       1.40583593       0.00000000
Si       2.70230908       2.67371030       0.01417914       0.00000000
Si       2.62892909      -2.75151135       0.00323845       0.00000000
Si      -2.73217512       0.00421911       2.68484729       0.00000000
Si      -2.73395072       2.68571603      -0.06949531       0.00000000
Si       2.67563252      -0.02275713      -2.74518159       0.00000000
Si      -0.00801468       2.70024671      -2.73316141       0.00000000
