10
Lattice="16.290000149 0.0 0.0 0.0 16.290000149 0.0 0.0 0.0 29.1751946751" Properties=species:S:1:pos:R:3:initial_magmoms:R:1 pbc="T T T"
Si       1.46942757      -1.29232807       1.27381817       0.00000000
Si      -1.40038615      -1.41321127      -1.26103944       0.00000000
Si      -1.23277834       1.43151146       1.41286715       0.00000000
Si       1.37974672       1.33833266      -1.38223320       0.00000000
Si       0.15737769      -2.62935752       2.63994667       0.00000000
Si      -2.58799232       2.74072248      -0.01254533       0.00000000
Si      -2.66608658      -0.02383227      -2.69082820       0.00000000
Si       0.02640609      -2.69774294      -2.67294381       0.00000000
Si       2.70534060       0.06448397       2.72047020       0.00000000
Si       2.76084226       2.69714673      -0.04752639       0.00000000
