10
Lattice="16.290000149 0.0 0.0 0.0 16.290000149 0.0 0.0 0.0 29.1751946751" Properties=species:S:1:pos:R:3:initial_magmoms:R:1 pbc="T T T"
Si       1.82342117      -0.88303204       1.14387186       0.00000000
Si      -0.86519449       1.78237037       1.29091484       0.00000000
Si       1.11635371       1.44627508      -1.54911531       0.00000000
Si      -1.00937728      -2.16780806      -0.37948176       0.00000000
H       -1.92898037      -0.60217615      -1.88395902       0.00000000
Si       2.59910210       2.46718568      -0.08090281       0.00000000
Si      -0.04771341      -2.56139890      -2.54148038       0.00000000
Si      -1.96644737       0.61862905       2.99203291       0.00000000
H        3.18515115      -0.62138206      -1.74680643       0.00000000
Si       0.99463483       3.27891639       1.44201317       0.00000000
