10
Lattice="16.290000149 0.0 0.0 0.0 16.290000149 0.0 0.0 0.0 29.1751946751" Properties=species:S:1:pos:R:3:initial_magmoms:R:1 pbc="T T T"
Si       1.37461537       1.38205990       1.30993707       0.00000000
Si       1.36935370      -1.34092602      -1.36501983       0.00000000
Si      -1.32540328       1.36370107      -1.39229864       0.00000000
Si      -1.36536265      -1.35963998       1.37654404       0.00000000
Si      -2.67307499      -2.67102927      -0.07159593       0.00000000
Si       2.68047065       0.00252495       2.68513904       0.00000000
Si      -2.68462460       2.71678106      -0.04037847       0.00000000
Si       2.70420518      -2.70602966       0.00583504       0.00000000
Si      -2.68788260       0.03684798       2.73931738       0.00000000
Si       0.05154156       2.75403630       2.68190060       0.00000000
