10
Lattice="16.290000149 0.0 0.0 0.0 16.290000149 0.0 0.0 0.0 29.1751946751" Properties=species:S:1:pos:R:3:initial_magmoms:R:1 pbc="T T T"
Si      -1.37746612       1.36642150       1.31130830       0.00000000
Si      -1.38003994      -1.33411843      -1.34415957       0.00000000
Si       1.35466012       1.35654976      -1.35699665       0.00000000
Si       1.35575155      -1.34965909       1.36965869       0.00000000
Si       0.00057015       2.70617627       2.64301006       0.00000000
Si      -0.01050705      -2.68089419      -2.68230905       0.00000000
Si      -2.72935695       0.01194057       2.67125165       0.00000000
Si       2.71497287      -2.70273908       0.01773852       0.00000000
Si      -0.00332316       2.72634329      -2.69459180       0.00000000
Si      -2.72868906      -2.69996978       0.01123245       0.00000000
