10
Lattice="16.290000149 0.0 0.0 0.0 16.290000149 0.0 0.0 0.0 29.1751946751" Properties=species:S:1:pos:R:3:initial_magmoms:R:1 pbc="T T T"
Si       0.36066060      -0.50112927       2.22061159       0.00000000
Si       1.82395874       1.30569238      -0.66262702       0.00000000
Si      -1.65719801       1.66057004      -0.10371782       0.00000000
Si      -0.68986522      -1.86075785      -1.30987872       0.00000000
H        1.75293434      -0.13838355       2.59069894       0.00000000
Si       0.77685382       2.14692428      -2.60009335       0.00000000
Si      -2.10217728      -0.63182395      -2.68773563       0.00000000
Si      -3.43743438       0.66976336      -1.26106861       0.00000000
Si      -0.74692909       3.40376295      -1.37809032       0.00000000
Si      -1.94670226       2.48639159       2.04725259       0.00000000
