10
Lattice="16.290000149 0.0 0.0 0.0 16.290000149 0.0 0.0 0.0 29.1751946751" Properties=species:S:1:pos:R:3:initial_magmoms:R:1 pbc="T T T"
Si      -1.37046142       1.35558865       1.33295629       0.00000000
Si      -1.37440360      -1.34716672      -1.34170885       0.00000000
Si       1.34864911       1.36585135      -1.35539202       0.00000000
Si       1.37047771      -1.34216569       1.36373612       0.00000000
Si      -0.00066789       2.71191035       2.66001920       0.00000000
Si      -0.01580130      -2.70525589      -2.68102534       0.00000000
Si       2.71818200       0.01907559      -2.69354150       0.00000000
Si       2.71928972      -2.69300744      -0.00860668       0.00000000
Si      -2.70567128       0.02319696      -2.71218445       0.00000000
Si      -2.71754669      -2.70212495       0.02441964       0.00000000
