10
Lattice="16.290000149 0.0 0.0 0.0 16.290000149 0.0 0.0 0.0 29.1751946751" Properties=species:S:1:pos:R:3:initial_magmoms:R:1 pbc="T T T"
Si       1.35922132      -1.35307999      -1.35192017       0.00000000
Si       1.37474569       1.36290286       1.33208104       0.00000000
Si      -1.35262387      -1.34848621       1.37318889       0.00000000
Si      -1.35575155       1.34965909      -1.36965869       0.00000000
Si       0.00221544       2.72297126       2.65278375       0.00000000
Si       2.68462460      -2.71678106       0.04037847       0.00000000
Si      -2.71396289      -2.69247638       0.00530989       0.00000000
Si      -2.72266175       0.03741813       2.68440966       0.00000000
Si      -0.00179190      -2.69500133      -2.71612310       0.00000000
Si       2.71347419       0.02518434      -2.70772064       0.00000000
