10
Lattice="16.290000149 0.0 0.0 0.0 16.290000149 0.0 0.0 0.0 29.1751946751" Properties=species:S:1:pos:R:3:initial_magmoms:R:1 pbc="T T T"
Si      -0.61900372       0.38227743      -2.15490905       0.00000000
Si       1.47942523      -1.81024256       0.12594932       0.00000000
Si       1.00584235       1.97737796       0.84905652       0.00000000
Si      -2.11869371      -0.51831522       1.03624456       0.00000000
H        0.07842006      -0.86043781       2.55533860       0.00000000
H        0.74301949      -1.26065053       2.61529363       0.00000000
H        2.32365449       1.51650127       1.44026266       0.00000000
H        2.86905999       1.37402893      -0.85999721       0.00000000
Si      -0.18541278      -3.31837077       0.87703553       0.00000000
Si      -2.35504532       1.71763391       1.98586798       0.00000000
