10
Lattice="16.290000149 0.0 0.0 0.0 16.290000149 0.0 0.0 0.0 29.1751946751" Properties=species:S:1:pos:R:3:initial_magmoms:R:1 pbc="T T T"
Si       1.33931983      -1.35843940       1.36338602       0.00000000
Si      -1.35457379      -1.35166276      -1.35950572       0.00000000
Si      -1.32619279       1.35039214       1.39378658       0.00000000
Si       1.35688045       1.35334063      -1.36178139       0.00000000
Si       2.69204144       0.02669931       2.68505152       0.00000000
Si      -2.66979582       2.70731657       0.02485727       0.00000000
Si       0.03267285      -2.71357193      -2.68166719       0.00000000
Si      -2.69048412      -2.71000442       0.02176470       0.00000000
Si       2.69847599       2.71539641       0.00312175       0.00000000
Si      -2.70082827       0.02832831      -2.71422671       0.00000000
