10
Lattice="16.290000149 0.0 0.0 0.0 16.290000149 0.0 0.0 0.0 29.1751946751" Properties=species:S:1:pos:R:3:initial_magmoms:R:1 pbc="T T T"
Si       1.34472322       1.33174661      -1.34601219       0.00000000
Si      -1.35524656       1.39490294       1.28872670       0.00000000
Si       1.37272573      -1.36227733       1.30938274       0.00000000
Si      -1.30517110      -1.32534790      -1.42266710       0.00000000
Si      -2.67829268       0.01001346       2.64937025       0.00000000
Si      -0.01356957      -2.72175929       2.61386404       0.00000000
Si       0.03934035       2.73739443       2.61611053       0.00000000
Si       2.72921033       0.00894158       2.64726964       0.00000000
Si      -2.65099879       2.74588152      -0.14287093       0.00000000
Si      -2.58288541       0.04560060      -2.81364119       0.00000000
