10
Lattice="16.290000149 0.0 0.0 0.0 16.290000149 0.0 0.0 0.0 29.1751946751" Properties=species:S:1:pos:R:3:initial_magmoms:R:1 pbc="T T T"
Si       1.35075362       1.20810746       1.48237705       0.00000000
Si       1.17163203      -1.59445511      -1.27895301       0.00000000
Si      -1.47350072      -1.31255666       1.37281545       0.00000000
Si      -0.28336960       1.82220952      -1.57534381       0.00000000
Si       2.48120632      -0.16611532      -2.63218606       0.00000000
Si       2.68636258       2.61435964       0.12951277       0.00000000
Si       0.65281508       1.01452525      -3.57200661       0.00000000
Si      -0.08053727       2.51443678       2.83493033       0.00000000
Si       2.51588773      -2.83205530       0.19162239       0.00000000
Si       2.62846792      -0.16284103       2.87335114       0.00000000
