10
Lattice="16.290000149 0.0 0.0 0.0 16.290000149 0.0 0.0 0.0 29.1751946751" Properties=species:S:1:pos:R:3:initial_magmoms:R:1 pbc="T T T"
H        0.66459943      -0.40021272       0.05995503       0.00000000
H       -1.16137927      -1.58053726       1.17587705       0.00000000
Si      -1.86830012      -1.64620226      -0.15538709       0.00000000
Si       0.87726538       1.76028113       1.78981067       0.00000000
Si      -2.19711377       0.34212258      -1.51909404       0.00000000
Si      -0.07842006       0.86043781      -2.55533860       0.00000000
Si       2.63381609       0.19691352       1.15525018       0.00000000
Si       1.40100517      -0.94980475      -2.42938929       0.00000000
Si      -0.26383284      -2.45793296      -1.67830307       0.00000000
Si      -0.26222013       3.10795284       0.25160688       0.00000000
