10
Lattice="16.290000149 0.0 0.0 0.0 16.290000149 0.0 0.0 0.0 29.1751946751" Properties=species:S:1:pos:R:3:initial_magmoms:R:1 pbc="T T T"
Si      -1.40620168       1.18053631       1.46932115       0.00000000
Si      -1.52925634      -1.33975477      -1.18731372       0.00000000
Si       1.36169740      -1.30777750       1.46707466       0.00000000
Si       0.82082053       1.48687791      -1.71319661       0.00000000
H        1.15310395      -2.41119695      -2.13299848       0.00000000
Si      -1.25087653       2.19432492      -2.55916055       0.00000000
Si      -2.54653264       0.21357819      -2.67644483       0.00000000
Si      -0.23916978      -2.77394268      -2.50308583       0.00000000
Si       0.04831614       2.61898894       2.74182645       0.00000000
H       -0.57958192       3.77620122       0.01444172       0.00000000
