10
Lattice="10.86 0.0 0.0 0.0 10.86 0.0 0.0 0.0 10.86" Properties=species:S:1:pos:R:3:initial_magmoms:R:1 pbc="T T T"
Si       1.17488910      -1.32473538      -1.38760392       0.00000000
Si       1.17488910       1.39026462       1.32739608       0.00000000
Si      -1.54011090       1.39026462      -1.38760392       0.00000000
Si       2.53238910      -2.68223538      -0.03010392       0.00000000
Si       2.53238910       0.03276462       2.68489608       0.00000000
Si       2.53238910       0.03276462      -2.74510392       0.00000000
Si       2.53238910       2.74776462      -0.03010392       0.00000000
Si      -0.18261090       2.74776462       2.68489608       0.00000000
Si      -2.88363408      -0.00629880       2.59368294       0.00000000
Si      -0.18261090       2.74776462      -2.74510392       0.00000000
