10
Lattice="16.28999089631971 0.0 0.0 0.0 16.28999089631971 0.0 0.0 0.0 34.51877397758722" Properties=species:S:1:pos:R:3:initial_magmoms:R:1 pbc="T T T"
Si       1.21632869       1.40247126      -1.45915569       0.00000000
Si      -1.31957538       1.37790594       1.40620244       0.00000000
Si       1.39755494      -1.33021601       1.39253990       0.00000000
Si      -1.25637961      -1.44792755      -1.48252491       0.00000000
Si      -0.75513435       2.30221683      -2.56938363       0.00000000
Si      -2.28500223       0.38141406      -2.69047556       0.00000000
Si      -2.67327438       0.02193286       2.76585628       0.00000000
Si       2.72417996       2.71617831      -0.14660132       0.00000000
Si       2.91935045      -2.52339335      -0.05724942       0.00000000
Si      -2.77257822       2.68879482       0.08524761       0.00000000
