10
Lattice="16.28999089631971 0.0 0.0 0.0 16.28999089631971 0.0 0.0 0.0 34.51877397758722" Properties=species:S:1:pos:R:3:initial_magmoms:R:1 pbc="T T T"
Si       0.24487454      -1.90044027       1.34550804       0.00000000
Si      -0.87577876      -0.81741591      -2.02152409       0.00000000
Si       2.20592175       0.84282831      -0.20897677       0.00000000
Si      -1.28708497       1.67813064       1.12027292       0.00000000
Si       0.02351950       3.61499535       0.70269907       0.00000000
Si      -1.66437766       1.04371659      -3.14566311       0.00000000
Si       2.17091454       2.84270274       1.13584089       0.00000000
Si      -2.58210739      -2.34255087      -1.45727990       0.00000000
Si       2.43060972       1.49905467      -2.50026523       0.00000000
Si      -1.34437690       1.06199397       3.41287309       0.00000000
