10
Lattice="16.28999089631971 0.0 0.0 0.0 16.28999089631971 0.0 0.0 0.0 34.51877397758722" Properties=species:S:1:pos:R:3:initial_magmoms:R:1 pbc="T T T"
Si       0.02555901       0.09967851      -2.33108863       0.00000000
Si      -1.24063826      -1.92710700       0.55319818       0.00000000
Si       2.18413062      -0.43166871       0.91143422       0.00000000
Si      -1.36488208       2.04878908       0.66755894       0.00000000
Si       1.37692854      -1.38847815       2.93019680       0.00000000
Si       2.74100427       1.80094162       1.39100381       0.00000000
Si       1.65416805       1.76215187      -2.63212702       0.00000000
Si      -0.94657769      -1.94520519       2.86074499       0.00000000
Si      -2.12183603       0.87197112      -2.76423045       0.00000000
Si      -2.31782754       2.75780645      -1.37740341       0.00000000
