10
Lattice="16.28999089631971 0.0 0.0 0.0 16.28999089631971 0.0 0.0 0.0 34.51877397758722" Properties=species:S:1:pos:R:3:initial_magmoms:R:1 pbc="T T T"
Si      -0.16535979      -1.34096089       1.96477519       0.00000000
Si      -1.82065185       0.71422039      -1.48303092       0.00000000
Si       0.63226377       2.30947240       0.76579943       0.00000000
Si       1.09421559      -1.74733123      -1.60077452       0.00000000
Si      -2.29568454      -1.98529555       1.16473312       0.00000000
Si       1.52252856       2.62865866      -1.56860300       0.00000000
Si      -0.20282679       1.78597696      -2.94945829       0.00000000
Si       1.77821640      -2.73160561       1.80957870       0.00000000
Si      -3.34720404       1.81904566      -0.01605124       0.00000000
Si      -1.75070259       3.26105275       1.12517459       0.00000000
