10
Lattice="16.28999089631971 0.0 0.0 0.0 16.28999089631971 0.0 0.0 0.0 34.51877397758722" Properties=species:S:1:pos:R:3:initial_magmoms:R:1 pbc="T T T"
Si      -0.20437434      -1.87104889       1.42790440       0.00000000
Si       1.92533139       1.32821655       0.45554451       0.00000000
Si       0.23618871      -1.09364122      -2.10792463       0.00000000
Si      -2.07456408       1.22762580      -0.00735250       0.00000000
Si      -3.09821139       0.17265282      -1.92701163       0.00000000
Si       0.38688750      -1.17253369       3.58881538       0.00000000
Si       1.68283845       2.29046685       2.57720762       0.00000000
Si      -1.89413604      -1.73797588      -2.90796670       0.00000000
Si       1.91589948       3.30284148      -0.86259012       0.00000000
Si       3.90955113      -0.00424843       0.55889378       0.00000000
