10
Lattice="16.28999089631971 0.0 0.0 0.0 16.28999089631971 0.0 0.0 0.0 34.51877397758722" Properties=species:S:1:pos:R:3:initial_magmoms:R:1 pbc="T T T"
Si      -0.63226377      -2.30947240      -0.76579943       0.00000000
Si       0.89026479       0.31918626      -2.33440243       0.00000000
Si      -2.38296636       0.95158035       0.35937516       0.00000000
Si       0.88208721       0.74604942       2.44431027       0.00000000
Si       2.92012911      -1.19829240       0.30314404       0.00000000
Si      -2.45291562      -1.59525201      -2.24883034       0.00000000
Si      -0.83509056      -0.52349544      -3.71525772       0.00000000
Si      -0.92696616       2.07414054       3.15342984       0.00000000
Si      -2.19413268       3.21960447      -0.40528515       0.00000000
Si      -0.79762356      -3.65043329       1.19897577       0.00000000
