10
Lattice="16.28999089631971 0.0 0.0 0.0 16.28999089631971 0.0 0.0 0.0 34.51877397758722" Properties=species:S:1:pos:R:3:initial_magmoms:R:1 pbc="T T T"
Si      -0.24249294       0.96225030       2.12166311       0.00000000
Si      -0.00943191       1.97462493      -1.31813464       0.00000000
Si      -1.92533139      -1.32821655      -0.45554451       0.00000000
Si       1.98421974      -1.33246498       0.10334927       0.00000000
Si       0.33936957      -1.08517301       3.28608556       0.00000000
Si      -1.81848528       3.30271605      -0.60901507       0.00000000
Si       2.36457495      -1.88656543       2.41496930       0.00000000
Si       1.40843340      -3.54080159      -0.68226395       0.00000000
Si       1.00515816       3.01865103       2.22670380       0.00000000
Si      -1.68914268      -2.42185778      -2.56346914       0.00000000
