10
Lattice="16.28999089631971 0.0 0.0 0.0 16.28999089631971 0.0 0.0 0.0 34.51877397758722" Properties=species:S:1:pos:R:3:initial_magmoms:R:1 pbc="T T T"
Si       0.28864251       0.38921208       2.28711169       0.00000000
Si       2.02520538      -0.80139241      -0.87111627       0.00000000
Si      -1.87781346      -1.41557724      -0.15281470       0.00000000
Si      -0.58186251       2.04742331      -1.16442245       0.00000000
Si       3.32345322       0.84370634       0.29848401       0.00000000
Si       1.97581410       2.00137148       1.99052621       0.00000000
Si      -0.33936957       1.08517301      -3.28608556       0.00000000
Si      -3.34050885      -0.04521615       1.06770079       0.00000000
Si       1.64485017      -0.24729197      -3.18273630       0.00000000
Si      -1.98376362       0.82652039       2.88611631       0.00000000
