10
Lattice="16.28999089631971 0.0 0.0 0.0 16.28999089631971 0.0 0.0 0.0 34.51877397758722" Properties=species:S:1:pos:R:3:initial_magmoms:R:1 pbc="T T T"
Si      -0.46874475       2.29667823       0.35188458       0.00000000
Si      -0.26990901      -0.83294680       2.20471533       0.00000000
Si       2.27240613      -0.43730831      -0.59900462       0.00000000
Si      -1.35674523      -0.87173654      -1.81841551       0.00000000
Si       1.98376362      -0.82652039      -2.88611631       0.00000000
Si      -0.82678266      -3.06555713       1.72514573       0.00000000
Si       0.09154980       2.50875774       2.61566156       0.00000000
Si      -1.48160808       0.86495013       3.31297570       0.00000000
Si       0.10595016      -2.24209763      -3.03893100       0.00000000
Si       0.50020074       3.48322554      -1.38133855       0.00000000
