10
Lattice="16.28999089631971 0.0 0.0 0.0 16.28999089631971 0.0 0.0 0.0 34.51877397758722" Properties=species:S:1:pos:R:3:initial_magmoms:R:1 pbc="T T T"
Si      -0.94842009      -1.87802523       1.20660442       0.00000000
Si       1.10029176       1.60388082       1.45009999       0.00000000
Si       1.39745394      -1.27029420      -1.59728812       0.00000000
Si      -1.30561092       1.40996466      -1.61347743       0.00000000
Si       2.72409525      -2.65342923      -0.18602178       0.00000000
Si      -2.67377544      -2.72070693      -0.17425087       0.00000000
Si      -2.62469367       2.80015326      -0.28878422       0.00000000
Si       0.99448821      -3.53431098       1.15575824       0.00000000
Si       2.62798425       2.84421771       0.02813282       0.00000000
Si       0.03196098      -2.63440251      -2.98587562       0.00000000
