10
Lattice="16.28999089631971 0.0 0.0 0.0 16.28999089631971 0.0 0.0 0.0 34.51877397758722" Properties=species:S:1:pos:R:3:initial_magmoms:R:1 pbc="T T T"
Si      -0.08185725       1.93383477      -1.34961578       0.00000000
Si      -1.86083928      -1.42089525       0.42285522       0.00000000
Si       1.90672821      -1.21256244      -0.76669692       0.00000000
Si       1.00502784       1.04976018       1.90250329       0.00000000
Si       3.15437931       0.84383829      -0.66165623       0.00000000
Si       0.03608235      -0.13678713       3.63572642       0.00000000
Si       0.33073587       1.12790331      -3.49737510       0.00000000
Si      -0.85191813      -3.30520190       1.46542633       0.00000000
Si       2.04198408       2.92442967      -1.17270696       0.00000000
Si       3.34969641       0.75953754       1.66415102       0.00000000
