10
Lattice="16.28999089631971 0.0 0.0 0.0 16.28999089631971 0.0 0.0 0.0 34.51877397758722" Properties=species:S:1:pos:R:3:initial_magmoms:R:1 pbc="T T T"
Si      -1.64491859      -1.62937467       0.54132372       0.00000000
Si       1.39927842       0.48809727       1.86049392       0.00000000
Si      -1.20111383       2.07295137      -0.20614623       0.00000000
Si       1.40944338      -0.36641097      -1.91361834       0.00000000
Si       1.59860286       1.94393457      -2.48932278       0.00000000
Si      -0.16487923       1.41281541       3.38159906       0.00000000
Si      -1.15696956      -3.39096617      -0.95848333       0.00000000
Si      -1.57333544       2.75112036       2.04140692       0.00000000
Si      -1.36780451      -2.28639014       2.77096161       0.00000000
Si      -0.04538394       3.48721659      -1.68610498       0.00000000
