10
Lattice="16.28999089631971 0.0 0.0 0.0 16.28999089631971 0.0 0.0 0.0 34.51877397758722" Properties=species:S:1:pos:R:3:initial_magmoms:R:1 pbc="T T T"
Si       2.14518123       0.72022977      -0.49341163       0.00000000
Si      -0.13859532      -0.51647445       2.28379788       0.00000000
Si      -1.80139707       1.48232484      -0.40690754       0.00000000
Si      -0.65371770      -2.12092542      -0.87491333       0.00000000
Si      -2.31614478      -1.41677388       1.78475969       0.00000000
Si      -3.59584808      -0.00863370       0.18467554       0.00000000
Si       2.22500223       2.78448228       0.70359656       0.00000000
Si      -1.66213386       2.07580212      -2.73185182       0.00000000
Si       2.27260161       1.35097857      -2.78214570       0.00000000
Si      -1.66136823      -3.43026675       0.81291758       0.00000000
