10
Lattice="16.28999089631971 0.0 0.0 0.0 16.28999089631971 0.0 0.0 0.0 34.51877397758722" Properties=species:S:1:pos:R:3:initial_magmoms:R:1 pbc="T T T"
Si       1.70277741       1.00059696      -1.49380910       0.00000000
Si      -1.37743353       1.29150378       1.60783706       0.00000000
Si      -1.97120403      -0.78157791      -1.33971721       0.00000000
Si       1.31989725      -1.43878167       1.59205162       0.00000000
Si       2.58517413       2.54356947       0.12254172       0.00000000
Si      -2.58923034       2.80367190       0.16750590       0.00000000
Si      -1.23272946       0.31100868      -3.65102657       0.00000000
Si      -2.83507902      -2.68599294       0.14641837       0.00000000
Si      -3.57135444       1.14328107      -1.20371316       0.00000000
Si      -0.04062726       2.63181240       2.99634172       0.00000000
