10
Lattice="16.28999089631971 0.0 0.0 0.0 16.28999089631971 0.0 0.0 0.0 34.51877397758722" Properties=species:S:1:pos:R:3:initial_magmoms:R:1 pbc="T T T"
Si       0.59126184       0.69851520       2.16091098       0.00000000
Si       0.20437434       1.87104889      -1.42790440       0.00000000
Si      -2.24034741      -0.93724515       0.04635874       0.00000000
Si       1.93903128      -1.50969204      -0.29140765       0.00000000
Si       0.44056305       0.77740767      -3.53582903       0.00000000
Si       1.00406673      -1.41058368       3.21801450       0.00000000
Si      -2.46503538      -1.59347151       2.33764720       0.00000000
Si      -2.08736802      -2.81184948      -1.40191175       0.00000000
Si      -1.87018974       3.09867470      -1.43525691       0.00000000
Si       3.53813913      -0.34153614      -1.65462384       0.00000000
