10
Lattice="16.28999089631971 0.0 0.0 0.0 16.28999089631971 0.0 0.0 0.0 34.51877397758722" Properties=species:S:1:pos:R:3:initial_magmoms:R:1 pbc="T T T"
Si       0.56334078       0.36061173       2.26384602       0.00000000
Si       1.77069042      -0.78255531      -1.37212203       0.00000000
Si      -0.41280489       2.10909888      -1.05710353       0.00000000
Si      -1.71486459      -1.68599871      -0.27197357       0.00000000
Si      -3.46910211      -0.18288783      -0.88036730       0.00000000
Si       1.69523514      -1.67620842       2.73078174       0.00000000
Si       0.93496455      -0.09910836      -3.50942216       0.00000000
Si      -1.00406673       1.41058368      -3.21801450       0.00000000
Si       2.40585381       1.86059493       2.34434384       0.00000000
Si       2.23940259      -3.09951459      -0.87208279       0.00000000
