10
Lattice="16.28999089631971 0.0 0.0 0.0 16.28999089631971 0.0 0.0 0.0 34.51877397758722" Properties=species:S:1:pos:R:3:initial_magmoms:R:1 pbc="T T T"
Si       0.78770295      -0.60302322       2.23205421       0.00000000
Si      -0.43896663       2.27491479       0.91819990       0.00000000
Si      -2.14780392      -1.29261150       0.07483674       0.00000000
Si       0.71783514       1.77588693      -1.85818116       0.00000000
Si       1.19964447      -1.67195673      -1.81275443       0.00000000
Si       2.63834469      -2.13732945       1.04281274       0.00000000
Si      -0.50448501       3.56890672      -1.09110454       0.00000000
Si       3.80979117      -0.32821092      -0.04221648       0.00000000
Si      -3.85813989       0.03378546      -0.80425336       0.00000000
Si       2.87814978       2.45049560      -1.21896215       0.00000000
