10
Lattice="16.28999089631971 0.0 0.0 0.0 16.28999089631971 0.0 0.0 0.0 34.51877397758722" Properties=species:S:1:pos:R:3:initial_magmoms:R:1 pbc="T T T"
Si      -1.71033597       1.32639696      -0.87909011       0.00000000
Si       0.16566930      -2.01513816      -1.21623516       0.00000000
Si       2.14780392       1.29261150      -0.07483674       0.00000000
Si      -0.73847457      -1.09258659       2.31130936       0.00000000
Si      -2.33862498       0.83227239       2.44731341       0.00000000
Si       2.93550687       0.68958828       2.15721747       0.00000000
Si      -1.67508441      -3.31464033      -0.39624123       0.00000000
Si      -0.90313389       2.28320640      -2.89785269       0.00000000
Si       3.34744839      -0.37934523      -1.88759117       0.00000000
Si       1.23272946      -0.31100868       3.65102657       0.00000000
