10
Lattice="16.28999089631971 0.0 0.0 0.0 16.28999089631971 0.0 0.0 0.0 34.51877397758722" Properties=species:S:1:pos:R:3:initial_magmoms:R:1 pbc="T T T"
Si      -1.25760429       1.42997855       1.37091733       0.00000000
Si       1.44510219      -1.30238291       1.34064089       0.00000000
Si      -1.72284669      -0.87597357      -1.38853369       0.00000000
Si       1.44643797       1.30809677      -1.37717700       0.00000000
Si      -0.45885672      -1.77443453      -3.17153292       0.00000000
Si       0.00032580       2.44769630      -2.82444645       0.00000000
Si      -2.61778671       0.07025225       2.71742296       0.00000000
Si       0.09381411      -2.64215396       2.71856208       0.00000000
Si      -2.63039517       2.75033192       0.05938613       0.00000000
Si       2.70987408       2.73982487       0.03660718       0.00000000
