10
Lattice="16.28999089631971 0.0 0.0 0.0 16.28999089631971 0.0 0.0 0.0 34.51877397758722" Properties=species:S:1:pos:R:3:initial_magmoms:R:1 pbc="T T T"
Si       1.33791399       1.35256762       1.36749651       0.00000000
Si      -1.35928647       1.35441490      -1.35689924       0.00000000
Si       1.35545832      -1.35915931      -1.35831452       0.00000000
Si      -1.36462959      -1.34982514       1.37115551       0.00000000
Si      -2.67405237       0.14556007       2.69546901       0.00000000
Si       2.60433117      -0.01086859       2.79609129       0.00000000
Si      -0.00099369       2.71395061      -2.71497213       0.00000000
Si       2.71417464      -0.00121344      -2.71490309       0.00000000
Si      -2.71608057      -0.00062975      -2.71511020       0.00000000
Si       2.71533123       2.71601944       0.00220920       0.00000000
