10
Lattice="16.28999089631971 0.0 0.0 0.0 16.28999089631971 0.0 0.0 0.0 34.51877397758722" Properties=species:S:1:pos:R:3:initial_magmoms:R:1 pbc="T T T"
Si      -1.72960704      -0.88088175       1.34178001       0.00000000
Si      -1.32664131       1.38313503      -1.41126634       0.00000000
Si       1.36562328      -1.34616813      -1.43470460       0.00000000
Si       1.90593000       1.09814148       1.51168151       0.00000000
Si      -2.64634308      -2.55317568      -0.10673211       0.00000000
Si      -0.76631418      -2.87796149       2.31700496       0.00000000
Si       3.42704133      -0.88940142       1.30943590       0.00000000
Si       2.63204046      -2.70960434      -0.00610983       0.00000000
Si      -2.72409525       2.65342923       0.18602178       0.00000000
Si      -2.69213427       0.01902672      -2.79985384       0.00000000
