10
Lattice="16.28999089631971 0.0 0.0 0.0 16.28999089631971 0.0 0.0 0.0 34.51877397758722" Properties=species:S:1:pos:R:3:initial_magmoms:R:1 pbc="T T T"
Si       1.26398997      -0.89846096      -1.78299923       0.00000000
Si       1.72284669       0.87597357       1.38853369       0.00000000
Si      -0.99093699      -1.85649215       1.23767966       0.00000000
Si      -1.86649191       2.02395594      -0.02685562       0.00000000
Si       0.46734381       1.80439932      -2.82322306       0.00000000
Si      -3.10000329      -0.52152665      -1.69252547       0.00000000
Si      -2.26097055      -0.42645949       2.73588158       0.00000000
Si       0.46524240       2.30595213       2.75945101       0.00000000
Si       3.16928466       2.18407035       0.01135668       0.00000000
Si       0.21711312      -0.34594584      -3.82968752       0.00000000
