10
Lattice="16.28999089631971 0.0 0.0 0.0 16.28999089631971 0.0 0.0 0.0 34.51877397758722" Properties=species:S:1:pos:R:3:initial_magmoms:R:1 pbc="T T T"
Si       1.44611217      -1.13959953       1.44726945       0.00000000
Si      -1.25582868      -1.51927056      -1.38731030       0.00000000
Si      -1.27606086       1.53448542       1.37723081       0.00000000
Si       0.99606834      -0.77983488      -2.15818399       0.00000000
Si       0.81881685       1.52710605      -3.01590697       0.00000000
Si      -2.29589631       0.37352970      -2.71973572       0.00000000
Si      -0.00032580      -2.44769630       2.82444645       0.00000000
Si       3.19712427      -2.01525219       0.08533046       0.00000000
Si      -2.63072097       0.30263562       2.88383258       0.00000000
Si       2.70954828       0.29212857       2.86105363       0.00000000
