10
Lattice="16.28999089631971 0.0 0.0 0.0 16.28999089631971 0.0 0.0 0.0 34.51877397758722" Properties=species:S:1:pos:R:3:initial_magmoms:R:1 pbc="T T T"
Si      -0.95333967      -2.21396805      -0.25892547       0.00000000
Si      -1.41160995       1.31282413       1.47764598       0.00000000
Si       1.61093439      -1.10363121       1.44806338       0.00000000
Si       0.08995338       1.10800996      -2.24900294       0.00000000
Si       1.30165245      -0.58988696      -3.35726331       0.00000000
Si       3.35674998      -1.53817740      -0.09561706       0.00000000
Si       0.09624132       2.62653118       2.79020035       0.00000000
Si       0.29141181      -2.61304047       2.87955225       0.00000000
Si       3.29123160      -0.24418547      -2.10492149       0.00000000
Si      -2.62793864      -0.08964713       2.93680167       0.00000000
