10
Lattice="16.28999089631971 0.0 0.0 0.0 16.28999089631971 0.0 0.0 0.0 34.51877397758722" Properties=species:S:1:pos:R:3:initial_magmoms:R:1 pbc="T T T"
Si       0.73137213      -0.46051830       2.18866409       0.00000000
Si      -1.24983396       1.77987798       1.02790063       0.00000000
Si      -1.10029176      -1.60388082      -1.45009999       0.00000000
Si       1.52769249       1.24033689      -1.42196717       0.00000000
Si       3.00954492       0.41684481       2.19349672       0.00000000
Si      -2.40590268      -0.19391616      -3.06357742       0.00000000
Si      -3.25853757       0.97513569       2.02487241       0.00000000
Si       0.29994777       2.52988587      -3.06633892       0.00000000
Si       2.39715495       3.19720572      -0.26054785       0.00000000
Si      -2.75656122       2.89005777      -0.45861669       0.00000000
