10
Lattice="16.28999089631971 0.0 0.0 0.0 16.28999089631971 0.0 0.0 0.0 34.51877397758722" Properties=species:S:1:pos:R:3:initial_magmoms:R:1 pbc="T T T"
Si       1.92068874       0.36562905      -1.26483762       0.00000000
Si      -0.63490275       1.73695383       1.47543678       0.00000000
Si      -0.60742152      -2.20947786       0.65071377       0.00000000
Si      -1.69034814       0.86899005      -1.53636245       0.00000000
Si       1.51568676      -0.61133112       2.48297132       0.00000000
Si      -2.21294763       2.67043599      -0.10341830       0.00000000
Si      -1.59902640      -1.76490747       2.77914256       0.00000000
Si      -3.06662508      -1.00939356      -1.84378682       0.00000000
Si      -1.77057639       0.59815251       3.22954378       0.00000000
Si       1.32913368       1.84793760      -2.99298649       0.00000000
