10
Lattice="16.28999089631971 0.0 0.0 0.0 16.28999089631971 0.0 0.0 0.0 34.51877397758722" Properties=species:S:1:pos:R:3:initial_magmoms:R:1 pbc="T T T"
Si      -1.39984857       1.30219002      -1.32700597       0.00000000
Si       1.32004386      -1.44173016      -1.31744426       0.00000000
Si       1.27575135       1.20461292       1.63436130       0.00000000
Si      -1.73646513      -1.08155826       1.29027797       0.00000000
Si      -0.22973787      -2.19173805       2.77679529       0.00000000
Si       2.58926292       2.63816550       0.13248313       0.00000000
Si       2.54778858      -2.73127914       0.32692749       0.00000000
Si      -0.04873968       2.64826530      -2.68908303       0.00000000
Si       2.67367770      -0.06921621      -2.68666672       0.00000000
Si       3.41725104      -0.77441031       1.48834681       0.00000000
