10
Lattice="16.28999089631971 0.0 0.0 0.0 16.28999089631971 0.0 0.0 0.0 34.51877397758722" Properties=species:S:1:pos:R:3:initial_magmoms:R:1 pbc="T T T"
Si      -1.27575135      -1.20461292      -1.63436130       0.00000000
Si       1.31351157       1.43355258      -1.50187818       0.00000000
Si      -0.95625558       2.18957148       1.01516319       0.00000000
Si      -0.64216809      -1.30601817       2.19056262       0.00000000
Si       2.14149969      -1.97902323      -0.14601450       0.00000000
Si      -3.01221648      -2.28617118      -0.34408333       0.00000000
Si       2.61008154       2.83234230      -0.11619026       0.00000000
Si      -1.50548922      -3.39635097       1.14243398       0.00000000
Si       0.04429251      -2.64634308      -2.95180557       0.00000000
Si      -2.67559992       0.09757710      -2.96136727       0.00000000
