10
Lattice="16.28999089631971 0.0 0.0 0.0 16.28999089631971 0.0 0.0 0.0 34.51877397758722" Properties=species:S:1:pos:R:3:initial_magmoms:R:1 pbc="T T T"
Si      -0.11096748       2.27704878      -0.60038537       0.00000000
Si       1.58311107      -1.42434873      -1.02962657       0.00000000
Si      -2.26152441      -0.65516751       0.23759285       0.00000000
Si       0.78154533      -0.04391784       2.23937219       0.00000000
Si      -0.49606308       1.74117294       3.13220078       0.00000000
Si       3.33560556      -1.47582513       0.50932479       0.00000000
Si      -0.77602302       3.34091610       1.37346827       0.00000000
Si      -2.29262202      -2.86269057       1.08571960       0.00000000
Si      -3.23301114      -0.89624322      -1.88886837       0.00000000
Si      -1.61956809       2.56543065      -2.37734381       0.00000000
