10
Lattice="16.28999089631971 0.0 0.0 0.0 16.28999089631971 0.0 0.0 0.0 34.51877397758722" Properties=species:S:1:pos:R:3:initial_magmoms:R:1 pbc="T T T"
Si      -1.29656997      -1.39878972      -1.38568792       0.00000000
Si       1.39010715       1.31450526      -1.41150798       0.00000000
Si      -0.06646320       1.00356174       2.19591303       0.00000000
Si      -2.00824749       1.14614811       0.91160681       0.00000000
Si       2.14272144       1.81169954       1.94879299       0.00000000
Si      -3.56633712      -0.64277082       1.13135345       0.00000000
Si       2.18510802       3.13470818      -0.09596225       0.00000000
Si      -2.57885361      -0.02445129      -2.83644376       0.00000000
Si      -2.61008154      -2.83234230       0.11619026       0.00000000
Si       0.12368997       2.67794146      -2.84010275       0.00000000
