10
Lattice="16.28999089631971 0.0 0.0 0.0 16.28999089631971 0.0 0.0 0.0 34.51877397758722" Properties=species:S:1:pos:R:3:initial_magmoms:R:1 pbc="T T T"
Si       1.29656997       1.39878972       1.38568792       0.00000000
Si      -1.28228364       1.37433843      -1.45075584       0.00000000
Si       1.42799769      -1.32864498      -1.45393157       0.00000000
Si      -1.31351157      -1.43355258       1.50187818       0.00000000
Si      -2.26976715       0.75601890       2.51704137       0.00000000
Si      -0.71167752       2.54493783       2.29729473       0.00000000
Si      -2.58926292      -2.63816550      -0.13248313       0.00000000
Si       0.82798812      -3.41257581       1.35586368       0.00000000
Si       2.68667712       2.71329498      -0.02582006       0.00000000
Si       2.60464068      -2.79622737      -0.06858884       0.00000000
