10
Lattice="16.28999089631971 0.0 0.0 0.0 16.28999089631971 0.0 0.0 0.0 34.51877397758722" Properties=species:S:1:pos:R:3:initial_magmoms:R:1 pbc="T T T"
Si      -1.87245405       1.37956752       0.30221204       0.00000000
Si       0.90898200      -0.24412194       2.15369655       0.00000000
Si       1.63333314       1.51837461      -0.82230669       0.00000000
Si      -0.32884623      -2.34999540      -0.67770747       0.00000000
Si       3.50270838      -0.00558747      -0.81409122       0.00000000
Si      -3.02645394       1.10786661      -1.73418966       0.00000000
Si       1.48126599      -2.57582367       2.21569230       0.00000000
Si       1.69083684      -3.41467722       0.00041423       0.00000000
Si       2.68809435       1.28467827       2.41924963       0.00000000
Si      -3.47156190       0.21141162       1.66542822       0.00000000
