10
Lattice="16.28999089631971 0.0 0.0 0.0 16.28999089631971 0.0 0.0 0.0 34.51877397758722" Properties=species:S:1:pos:R:3:initial_magmoms:R:1 pbc="T T T"
Si      -2.07130608      -0.91481382       0.56824837       0.00000000
Si       1.27760841      -1.78509078      -0.89282859       0.00000000
Si      -0.27995994       1.59974316      -1.75873252       0.00000000
Si       0.53884062       0.42893199       2.33878632       0.00000000
Si       1.19738016       3.04473132      -0.58461028       0.00000000
Si      -0.39280077       3.20763851       1.16204066       0.00000000
Si      -1.21632543      -2.87321391       1.50605495       0.00000000
Si       0.49606308      -1.74117294      -3.13220078       0.00000000
Si      -2.55311541       2.53302984       0.52282164       0.00000000
Si       2.86176204       0.28725786       2.25314519       0.00000000
