10
Lattice="16.28999089631971 0.0 0.0 0.0 16.28999089631971 0.0 0.0 0.0 34.51877397758722" Properties=species:S:1:pos:R:3:initial_magmoms:R:1 pbc="T T T"
Si      -1.35369900      -1.35597308       1.35965384       0.00000000
Si       1.36209065       1.35703845       1.36144882       0.00000000
Si      -1.45300284       1.31088888      -1.32095483       0.00000000
Si       1.31957538      -1.37790594      -1.40620244       0.00000000
Si       2.53590407       0.02456532      -2.86535812       0.00000000
Si       2.71713032      -2.70812195      -0.01366254       0.00000000
Si       2.71748870       2.71026504      -0.02198157       0.00000000
Si       0.00268756      -2.71400146       2.72055727       0.00000000
Si      -2.71448415       0.00162900       2.72066083       0.00000000
Si       0.00253558       2.71609686       2.71993593       0.00000000
