10
Lattice="16.28999089631971 0.0 0.0 0.0 16.28999089631971 0.0 0.0 0.0 34.51877397758722" Properties=species:S:1:pos:R:3:initial_magmoms:R:1 pbc="T T T"
Si      -1.35462157       1.35102744      -1.35897037       0.00000000
Si       1.36300722      -1.35993807      -1.35758962       0.00000000
Si      -1.35799360      -1.36174626       1.36111054       0.00000000
Si       1.35757451       1.36840887       1.37698918       0.00000000
Si       2.52027163      -0.13755276       2.74500348       0.00000000
Si      -2.70695221       2.71186146       0.00155335       0.00000000
Si      -2.70993328      -0.00386073      -2.71535183       0.00000000
Si       0.00460445       2.71072116      -2.71473050       0.00000000
Si      -2.70902104      -2.71655298       0.00182950       0.00000000
Si       2.71752724       2.71006956       0.00410774       0.00000000
