10
Lattice="16.28999089631971 0.0 0.0 0.0 16.28999089631971 0.0 0.0 0.0 34.51877397758722" Properties=species:S:1:pos:R:3:initial_magmoms:R:1 pbc="T T T"
Si      -0.29320371       2.35612044       0.11073629       0.00000000
Si       1.98079951      -1.30801274       0.14580738       0.00000000
Si      -0.29727621      -0.51329790      -2.33164093       0.00000000
Si      -1.59208686      -0.76403847       1.71617084       0.00000000
Si       0.74997531      -2.65058567      -1.53763965       0.00000000
Si      -2.43897138      -2.47524011      -0.00314121       0.00000000
Si      -2.50646085      -1.32143570      -2.08452089       0.00000000
Si      -0.36639468       0.33416492       3.64363122       0.00000000
Si      -2.80621314       2.58142743      -0.04066314       0.00000000
Si      -3.36919554       0.87891066       1.57226200       0.00000000
