10
Lattice="16.28999089631971 0.0 0.0 0.0 16.28999089631971 0.0 0.0 0.0 34.51877397758722" Properties=species:S:1:pos:R:3:initial_magmoms:R:1 pbc="T T T"
Si      -0.61615296       2.24993407       0.21705417       0.00000000
Si       2.24893617      -0.77096498       0.15205528       0.00000000
Si      -1.07792559      -0.43672350       2.10098635       0.00000000
Si      -1.22569218      -1.09820338      -1.92746038       0.00000000
Si      -1.01781549      -3.04310136      -0.40521611       0.00000000
Si      -2.87425647       1.82823484      -0.03072173       0.00000000
Si      -0.89054172      -2.78615919       1.94944885       0.00000000
Si       0.52509186       3.17567848      -1.54205805       0.00000000
Si       0.36639468      -0.33416492      -3.64363122       0.00000000
Si      -3.00280086       0.54474574      -2.07136923       0.00000000
