10
Lattice="16.28999089631971 0.0 0.0 0.0 16.28999089631971 0.0 0.0 0.0 34.51877397758722" Properties=species:S:1:pos:R:3:initial_magmoms:R:1 pbc="T T T"
Si       1.16269712      -1.50596163       1.36801430       0.00000000
Si       1.35995273       1.34166069      -1.37288145       0.00000000
Si      -1.35757451      -1.36840887      -1.37698918       0.00000000
Si      -1.26196789       1.38453597       1.58241052       0.00000000
Si       2.45216465       0.15915330       2.49688239       0.00000000
Si      -2.19376683      -0.60659073       2.76015723       0.00000000
Si      -2.71947771       2.68392411       0.01788073       0.00000000
Si      -0.39933632      -2.52740979       2.85208078       0.00000000
Si       2.72241575       2.69995347      -0.00745606       0.00000000
Si       0.00373693       2.69900865      -2.73416458       0.00000000
