10
Lattice="16.28999089631971 0.0 0.0 0.0 16.28999089631971 0.0 0.0 0.0 34.51877397758722" Properties=species:S:1:pos:R:3:initial_magmoms:R:1 pbc="T T T"
Si      -1.44611217       1.13959953      -1.44726945       0.00000000
Si       1.26343611       1.43172810       1.41378418       0.00000000
Si       1.75101210      -0.87565266      -1.36193899       0.00000000
Si      -1.44643797      -1.30809677       1.37717700       0.00000000
Si      -0.45004383       0.35976465      -3.60545344       0.00000000
Si       3.28087998       1.04515011      -1.24084706       0.00000000
Si      -0.00133578      -2.61047969       2.71781790       0.00000000
Si      -2.72217303       2.67408495      -0.07003863       0.00000000
Si      -3.16928466      -2.18407035      -0.01135668       0.00000000
Si       2.71643895       0.12083922       2.73473901       0.00000000
