10
Lattice="16.28999089631971 0.0 0.0 0.0 16.28999089631971 0.0 0.0 0.0 34.51877397758722" Properties=species:S:1:pos:R:3:initial_magmoms:R:1 pbc="T T T"
Si      -1.75101210       0.87565266       1.36193899       0.00000000
Si       1.02862262      -1.82934161       1.20795065       0.00000000
Si       1.52986788       1.92080277       0.12109193       0.00000000
Si       0.52444026      -1.29093689      -2.67220334       0.00000000
Si       1.67089366      -2.61341189      -1.07329284       0.00000000
Si      -2.20105593       1.23541731      -2.24351445       0.00000000
Si       2.28500223      -0.38141406       2.69047556       0.00000000
Si      -0.48757599       2.30738076       2.77572317       0.00000000
Si      -3.19712427       2.01525219      -0.08533046       0.00000000
Si       1.68852270       2.77467570      -2.06094455       0.00000000
