10
Lattice="16.28999089631971 0.0 0.0 0.0 16.28999089631971 0.0 0.0 0.0 34.51877397758722" Properties=species:S:1:pos:R:3:initial_magmoms:R:1 pbc="T T T"
Si       1.27257480      -1.42381116      -1.31942219       0.00000000
Si       1.36793646       1.33794657       1.36125552       0.00000000
Si      -1.34732961      -1.37456649       1.36581200       0.00000000
Si      -1.31396769       1.42772076      -1.48267537       0.00000000
Si      -2.68618842       2.66546754       0.01662080       0.00000000
Si       2.49772941       0.10909413      -2.85450541       0.00000000
Si       0.01192428       2.69610903       2.72188279       0.00000000
Si       2.72209947       2.70262503      -0.02767026       0.00000000
Si      -2.70337437      -0.02024847       2.72315999       0.00000000
Si      -2.69490357      -2.73365748       0.01488796       0.00000000
