10
Lattice="16.28999089631971 0.0 0.0 0.0 16.28999089631971 0.0 0.0 0.0 34.51877397758722" Properties=species:S:1:pos:R:3:initial_magmoms:R:1 pbc="T T T"
Si       1.35672849      -1.35669636       1.35769318       0.00000000
Si      -1.35765747       1.35736425       1.35703732       0.00000000
Si      -1.35900954      -1.35679410      -1.35724443       0.00000000
Si       1.35801019       1.35767376      -1.35796933       0.00000000
Si      -0.00234576       2.71225242       2.71341878       0.00000000
Si       2.71455161      -2.71465031      -0.00020711       0.00000000
Si       2.71441477       2.71500543      -0.00017259       0.00000000
Si       2.71528303       0.00128691       2.71479953       0.00000000
Si      -0.00156384      -2.71518788       2.71500665       0.00000000
Si      -2.71520091      -0.00071676       2.71511020       0.00000000
