10
Lattice="16.28999089631971 0.0 0.0 0.0 16.28999089631971 0.0 0.0 0.0 34.51877397758722" Properties=species:S:1:pos:R:3:initial_magmoms:R:1 pbc="T T T"
Si       0.27127737      -0.58557663       2.24969331       0.00000000
Si       1.67940126       1.19218365      -1.17481261       0.00000000
Si      -1.28946753      -1.66511493      -1.12886810       0.00000000
Si       0.65370141       2.66755266       1.69249095       0.00000000
Si       2.14584912       0.97104690       2.58894401       0.00000000
Si      -2.45216465      -0.15915330      -2.49688239       0.00000000
Si       0.27025110       2.54080017      -2.50433845       0.00000000
Si      -0.70960869       1.31312061       3.30652069       0.00000000
Si       0.27029997      -2.89430946      -2.49070353       0.00000000
Si       2.99848401      -0.19800495      -2.49950582       0.00000000
