10
Lattice="16.28999089631971 0.0 0.0 0.0 16.28999089631971 0.0 0.0 0.0 34.51877397758722" Properties=species:S:1:pos:R:3:initial_magmoms:R:1 pbc="T T T"
Si      -0.74143935      -0.72133749      -2.10409304       0.00000000
Si      -0.92429460       1.93069080       0.97032328       0.00000000
Si       2.19523293       0.63825849      -0.66900873       0.00000000
Si      -0.10738368      -1.96240743       1.35579464       0.00000000
Si       1.92168243       2.98872630      -0.57228707       0.00000000
Si      -1.20321198      -3.40799506      -0.22016086       0.00000000
Si       2.20477235      -2.51341668       1.44737300       0.00000000
Si       3.60368913      -0.70004646       0.67118342       0.00000000
Si       0.87478929       3.30287895       1.53014907       0.00000000
Si      -0.12528639      -2.97127157      -2.32114722       0.00000000
