10
Lattice="16.28999089631971 0.0 0.0 0.0 16.28999089631971 0.0 0.0 0.0 34.51877397758722" Properties=species:S:1:pos:R:3:initial_magmoms:R:1 pbc="T T T"
Si       1.35233064      -1.36083402      -1.36052372       0.00000000
Si      -1.36050822       1.35703845      -1.35931556       0.00000000
Si       1.34504901       1.34047152       1.39331657       0.00000000
Si      -1.37557647      -1.34060184       1.38882913       0.00000000
Si      -0.19510533       2.62516608       2.75138946       0.00000000
Si       2.70695221      -2.71186146      -0.00155335       0.00000000
Si       2.71153044       2.71627605       0.00158786       0.00000000
Si       2.71155666      -0.00114030      -2.71628384       0.00000000
Si      -2.71533123       2.71401174       0.00082845       0.00000000
Si      -0.00288333       2.71427238      -2.71666355       0.00000000
