10
Lattice="16.28999089631971 0.0 0.0 0.0 16.28999089631971 0.0 0.0 0.0 34.51877397758722" Properties=species:S:1:pos:R:3:initial_magmoms:R:1 pbc="T T T"
Si      -0.78859890       1.86113250      -1.12413902       0.00000000
Si       0.87577876       0.81741591       2.02152409       0.00000000
Si      -1.70632863      -1.52513496       0.56424419       0.00000000
Si       1.66491686      -1.04909229      -1.33542856       0.00000000
Si       1.11013322       3.32783523      -1.00522178       0.00000000
Si       1.12065330      -1.08302436       3.36703213       0.00000000
Si       0.48182562      -1.39183389      -3.49851422       0.00000000
Si       2.94462017      -2.45723247       0.26465559       0.00000000
Si      -2.64456747       2.81729034      -0.06268613       0.00000000
Si       3.08170052       1.66024422       1.81254732       0.00000000
