10
Lattice="16.28999089631971 0.0 0.0 0.0 16.28999089631971 0.0 0.0 0.0 34.51877397758722" Properties=species:S:1:pos:R:3:initial_magmoms:R:1 pbc="T T T"
Si      -1.27760841       1.78509078       0.89282859       0.00000000
Si      -0.78154533       0.04391784      -2.23937219       0.00000000
Si      -0.46027395      -1.87984971       1.39103833       0.00000000
Si       2.38198896       0.07291404       0.13569338       0.00000000
Si       2.55406023      -1.43190729      -1.73004740       0.00000000
Si       2.49432480      -0.07643268       2.59398376       0.00000000
Si      -2.49393384      -1.08812313       2.39888354       0.00000000
Si       0.80156574      -1.38043089      -3.26899876       0.00000000
Si      -3.04306974      -0.61124967      -2.00177934       0.00000000
Si      -3.34891449       0.87027696       1.46107696       0.00000000
