10
Lattice="16.28999089631971 0.0 0.0 0.0 16.28999089631971 0.0 0.0 0.0 34.51877397758722" Properties=species:S:1:pos:R:3:initial_magmoms:R:1 pbc="T T T"
Si       1.81814319       0.80993880       1.37995232       0.00000000
Si      -1.79251902       1.65752379       0.37729390       0.00000000
Si      -0.91079019      -1.91741445       1.45930067       0.00000000
Si       0.46845153       0.39214917      -2.50440749       0.00000000
Si       1.84738374      -1.68296877      -1.86943429       0.00000000
Si       0.43326513       2.06322624       2.94060909       0.00000000
Si      -2.28301092      -0.67966767       2.95859684       0.00000000
Si      -0.81982683       3.43924254       1.52148627       0.00000000
Si      -3.55060098       0.62954334       1.52172445       0.00000000
Si       2.97453771       2.71306692       0.18022262       0.00000000
