10
Lattice="16.28999089631971 0.0 0.0 0.0 16.28999089631971 0.0 0.0 0.0 34.51877397758722" Properties=species:S:1:pos:R:3:initial_magmoms:R:1 pbc="T T T"
Si       0.78859890      -1.86113250       1.12413902       0.00000000
Si      -1.85596857       0.95615784       1.06145289       0.00000000
Si       1.89873212       1.46670273       0.11891724       0.00000000
Si      -1.04135454      -0.33410790      -2.17188795       0.00000000
Si       1.50904111       2.35708155      -2.03115483       0.00000000
Si      -2.06384526       2.90105582      -0.46079137       0.00000000
Si       1.66437766      -1.04371659       3.14566311       0.00000000
Si      -3.63508092      -0.57264237       0.79589982       0.00000000
Si       2.45351576      -2.91022479      -0.21128953       0.00000000
Si      -2.91072978       1.18985418      -2.18010343       0.00000000
