10
Lattice="16.28999089631971 0.0 0.0 0.0 16.28999089631971 0.0 0.0 0.0 34.51877397758722" Properties=species:S:1:pos:R:3:initial_magmoms:R:1 pbc="T T T"
Si       2.24909418      -0.24607674       0.60725461       0.00000000
Si       0.05729193       0.61613667      -2.29260017       0.00000000
Si      -0.63464211      -2.21055300       0.65036858       0.00000000
Si      -1.07662239       1.45204173       1.59041888       0.00000000
Si       2.84308460      -2.43501291      -0.14970801       0.00000000
Si      -3.01663107      -2.28346704       0.51467521       0.00000000
Si       1.34437690      -1.06199397      -3.41287309       0.00000000
Si       3.48973244       1.68103026       0.05405643       0.00000000
Si       2.54315475      -0.26417493       2.91480142       0.00000000
Si       0.54058365       3.07268889       2.37644632       0.00000000
