10
Lattice="16.28999089631971 0.0 0.0 0.0 16.28999089631971 0.0 0.0 0.0 34.51877397758722" Properties=species:S:1:pos:R:3:initial_magmoms:R:1 pbc="T T T"
Si       1.99225071       1.09296126       0.42958638       0.00000000
Si      -0.18915948      -2.31034554       0.57570443       0.00000000
Si      -1.64398680       1.54328202       0.80321780       0.00000000
Si       0.53625051      -0.02959893      -2.36446830       0.00000000
Si      -1.59860286      -1.94393457       2.48932278       0.00000000
Si       1.57965759       1.89889272       2.57734570       0.00000000
Si      -2.79971669       0.12901680       2.28317654       0.00000000
Si      -0.26630892       3.15652959       1.82887470       0.00000000
Si       3.80130408      -0.23512986      -0.27953319       0.00000000
Si      -1.21280679      -3.36531852      -1.34395470       0.00000000
