10
Lattice="16.28999089631971 0.0 0.0 0.0 16.28999089631971 0.0 0.0 0.0 34.51877397758722" Properties=species:S:1:pos:R:3:initial_magmoms:R:1 pbc="T T T"
Si       0.61513321       1.90547388      -1.30922879       0.00000000
Si       1.35277699      -1.81739385      -0.78682137       0.00000000
Si      -2.30598049      -0.71192187      -0.31912624       0.00000000
Si       1.76168857       0.10899639       1.71938109       0.00000000
Si      -1.25245732      -2.26499418       1.63777867       0.00000000
Si       0.27303995      -1.09206531       3.05907069       0.00000000
Si       2.89573321       1.47259971      -1.18440883       0.00000000
Si       2.45616385      -0.48120660      -2.41144838       0.00000000
Si       3.43004521      -0.95343741       0.17690882       0.00000000
Si      -2.01613252      -1.83964599      -2.48856336       0.00000000
