10
Lattice="16.28999089631971 0.0 0.0 0.0 16.28999089631971 0.0 0.0 0.0 34.51877397758722" Properties=species:S:1:pos:R:3:initial_magmoms:R:1 pbc="T T T"
Si      -1.29731931       1.26581445       1.47517444       0.00000000
Si      -1.20677949      -1.68124203      -1.28989624       0.00000000
Si       1.44107856      -1.46233701       1.44862949       0.00000000
Si       0.86387499       1.90441503      -1.48613558       0.00000000
Si      -2.47125327       2.84506479       0.02525050       0.00000000
Si       0.08071695       2.60380989       2.84215662       0.00000000
Si      -2.63605432      -0.10689498       2.84408967       0.00000000
Si       2.83507902       2.68599294      -0.14641837       0.00000000
Si      -2.69542811      -2.88230373       0.04979336       0.00000000
Si       0.46157715      -2.74367583      -2.83236851       0.00000000
