10
Lattice="16.28999089631971 0.0 0.0 0.0 16.28999089631971 0.0 0.0 0.0 34.51877397758722" Properties=species:S:1:pos:R:3:initial_magmoms:R:1 pbc="T T T"
Si       1.80473652       0.84119931      -1.37115551       0.00000000
Si      -1.98624689       1.36306575      -0.27635746       0.00000000
Si      -0.93439065      -1.92665088      -1.28382296       0.00000000
Si       0.16927916       1.47121506       2.21955841       0.00000000
Si      -0.24897473      -1.69381791       3.08566945       0.00000000
Si       0.35506661       2.09569221      -2.86906402       0.00000000
Si      -0.62836720       3.41270613       1.09963068       0.00000000
Si      -1.08176093       3.23736057      -1.39859795       0.00000000
Si       3.43344330      -0.48448089       1.32313986       0.00000000
Si      -2.39190047      -0.62726274      -2.84835275       0.00000000
