10
Lattice="16.28999089631971 0.0 0.0 0.0 16.28999089631971 0.0 0.0 0.0 34.51877397758722" Properties=species:S:1:pos:R:3:initial_magmoms:R:1 pbc="T T T"
Si      -1.25383315      -0.52742133      -1.91765704       0.00000000
Si       2.12462325      -0.61383978      -0.83549287       0.00000000
Si      -1.26589101      -1.47185037       1.39417954       0.00000000
Si      -0.59399041       2.18893617       0.75696262       0.00000000
Si      -3.47772671       0.22445991       0.80007659       0.00000000
Si       1.60049250      -2.89755117      -1.41143894       0.00000000
Si      -3.30565544      -1.28036142      -1.06566419       0.00000000
Si      -2.84308460       2.43501291       0.14970801       0.00000000
Si      -0.29992985       2.17083798       3.06450943       0.00000000
Si      -0.20225664      -2.39803461      -2.91728678       0.00000000
