10
Lattice="16.28999089631971 0.0 0.0 0.0 16.28999089631971 0.0 0.0 0.0 34.51877397758722" Properties=species:S:1:pos:R:3:initial_magmoms:R:1 pbc="T T T"
Si      -1.35291871       1.35567009      -1.35938460       0.00000000
Si      -1.33029679      -1.36765953       1.37322663       0.00000000
Si       1.36243044      -1.35803214      -1.35834903       0.00000000
Si       1.36840887       1.36565586       1.36594317       0.00000000
Si      -2.70776357       2.71164621       0.00317573       0.00000000
Si      -2.71078243      -2.71480995       0.00220920       0.00000000
Si      -2.71019062      -0.00192222      -2.71576606       0.00000000
Si       0.00518022       2.71282546      -2.71593865       0.00000000
Si       2.71565703      -2.71425609       0.00203661       0.00000000
Si       0.00421911      -2.71637379      -2.71514472       0.00000000
