10
Lattice="16.28999089631971 0.0 0.0 0.0 16.28999089631971 0.0 0.0 0.0 34.51877397758722" Properties=species:S:1:pos:R:3:initial_magmoms:R:1 pbc="T T T"
Si       0.79764637      -1.94149107       1.11992773       0.00000000
Si      -1.42178535       1.11415455       1.60716050       0.00000000
Si       2.05072855       1.10250720      -0.68916771       0.00000000
Si      -0.45339372      -0.17534556      -2.49822863       0.00000000
Si      -1.35787968      -2.04964038      -1.37598814       0.00000000
Si       2.68722772      -0.72614304       2.19394546       0.00000000
Si       0.62836720      -3.41270613      -1.09963068       0.00000000
Si       2.94557083       1.62530217       1.58493039       0.00000000
Si       3.58619137      -0.80659935      -1.16873730       0.00000000
Si      -0.19096115       2.45672748       3.29060752       0.00000000
