10
Lattice="16.28999089631971 0.0 0.0 0.0 16.28999089631971 0.0 0.0 0.0 34.51877397758722" Properties=species:S:1:pos:R:3:initial_magmoms:R:1 pbc="T T T"
Si       1.55924622       0.99111618      -1.41775588       0.00000000
Si       0.94734495      -0.82800441       2.08773114       0.00000000
Si      -1.15308765      -1.76490747      -1.30204888       0.00000000
Si      -1.53546282       1.90910655       0.47956959       0.00000000
Si       0.47561913      -3.09058767       1.39224649       0.00000000
Si      -0.89896365       0.08045631       3.36268277       0.00000000
Si       0.09594810       2.22290082      -2.80724086       0.00000000
Si      -0.64062054       2.43190152       2.75366770       0.00000000
Si      -2.78854501      -1.13489172       2.28866503       0.00000000
Si       2.46974319      -2.87217135      -0.19478955       0.00000000
