10
Lattice="16.28999089631971 0.0 0.0 0.0 16.28999089631971 0.0 0.0 0.0 34.51877397758722" Properties=species:S:1:pos:R:3:initial_magmoms:R:1 pbc="T T T"
Si       1.93245664       1.07920340      -0.72472206       0.00000000
Si       0.38969101      -0.89037882       2.15007208       0.00000000
Si      -1.98079951       1.30801274      -0.14580738       0.00000000
Si      -1.23082420      -1.34257293      -1.68344703       0.00000000
Si      -1.50904111      -2.35708155       2.03115483       0.00000000
Si      -2.27807572       0.79471484      -2.47744831       0.00000000
Si       3.13653199      -0.83142531      -1.70567713       0.00000000
Si      -2.55039565      -2.69118945      -0.14073312       0.00000000
Si      -0.09825802       0.87121268       3.64987913       0.00000000
Si       2.95610395       2.13417638       1.19493707       0.00000000
