10
Lattice="16.28999089631971 0.0 0.0 0.0 16.28999089631971 0.0 0.0 0.0 34.61538196595647" Properties=species:S:1:pos:R:3:initial_magmoms:R:1 pbc="T T T"
Si      -1.34264298      -1.34409833       1.38591759       0.00000000
Si       1.37363796       1.36945633       1.38349451       0.00000000
Si      -1.41417074       1.33628826      -1.46918840       0.00000000
Si       1.39152438      -1.46852135      -1.42532723       0.00000000
Si       0.48439944       2.05097292      -2.68169363       0.00000000
Si       2.28222900       0.38027215      -2.52256968       0.00000000
Si      -2.69865746      -0.31595498      -2.64978682       0.00000000
Si      -2.67829496      -2.72925332       0.01967886       0.00000000
Si      -2.69751716       2.72425491       0.02374270       0.00000000
Si       2.73885399      -2.70234224       0.02007347       0.00000000
