10
Lattice="16.28999089631971 0.0 0.0 0.0 16.28999089631971 0.0 0.0 0.0 34.61538196595647" Properties=species:S:1:pos:R:3:initial_magmoms:R:1 pbc="T T T"
Si       1.35798653      -1.35751812       1.35702758       0.00000000
Si       1.35808427       1.35701076      -1.35744296       0.00000000
Si      -1.35747266       1.35771123       1.35754681       0.00000000
Si      -1.35869869      -1.35943143      -1.35647373       0.00000000
Si      -0.00007656       2.71375599       2.71485131       0.00000000
Si       0.00106699      -2.71520321       2.71363977       0.00000000
Si      -2.71281021      -0.00142049      -2.71606285       0.00000000
Si      -2.71396680       0.00049685       2.71498977       0.00000000
Si       2.71479692      -0.00082753       2.71471285       0.00000000
Si      -2.71528629      -2.71447016       0.00034615       0.00000000
