10
Lattice="16.28999089631971 0.0 0.0 0.0 16.28999089631971 0.0 0.0 0.0 34.61538196595647" Properties=species:S:1:pos:R:3:initial_magmoms:R:1 pbc="T T T"
Si      -1.32880788       1.20990880      -1.50691227       0.00000000
Si       1.08229131       1.75475065       1.25581214       0.00000000
Si      -1.77953589      -0.98621193       1.33971988       0.00000000
Si       1.39781232      -1.50946302      -1.46918148       0.00000000
Si      -2.83568175       2.43148612      -0.11440390       0.00000000
Si       0.02625948       2.55670735      -2.87017062       0.00000000
Si       2.85379623       2.60217274      -0.07047696       0.00000000
Si      -2.68684002      -0.15786543      -2.87190139       0.00000000
Si      -3.68131194       0.60042171       1.27242754       0.00000000
Si      -2.78505243      -2.80261209      -0.03015001       0.00000000
