10
Lattice="16.28999089631971 0.0 0.0 0.0 16.28999089631971 0.0 0.0 0.0 34.61538196595647" Properties=species:S:1:pos:R:3:initial_magmoms:R:1 pbc="T T T"
Si       0.51254856       2.28252059       0.27072705       0.00000000
Si      -2.09104956       0.51767502      -0.99263125       0.00000000
Si       1.72020771      -0.50233489      -1.57268153       0.00000000
Si      -0.26065629      -1.93833963       1.37014681       0.00000000
Si      -0.99442305       0.62594162      -3.20950539       0.00000000
Si      -1.59708789      -3.04594560      -0.30672707       0.00000000
Si      -3.37908357      -1.44525762      -0.69158110       0.00000000
Si       2.45280159       1.54577276      -2.38752807       0.00000000
Si       2.73582405       2.70149939      -0.33968093       0.00000000
Si       3.69696663      -1.13045337      -0.35813094       0.00000000
