10
Lattice="16.28999089631971 0.0 0.0 0.0 16.28999089631971 0.0 0.0 0.0 34.61538196595647" Properties=species:S:1:pos:R:3:initial_magmoms:R:1 pbc="T T T"
Si       1.31364189      -1.06934062       1.64437002       0.00000000
Si      -0.49329378       2.29549639       0.49070793       0.00000000
Si       1.52484174      -0.50994202      -1.80000087       0.00000000
Si      -1.64760318      -1.77370393      -0.12330006       0.00000000
Si      -0.15514596      -3.39553633      -0.99055432       0.00000000
Si       1.52759475      -3.18899542       0.60303491       0.00000000
Si       0.37558224      -2.23850650      -2.95248604       0.00000000
Si       3.55260465      -0.39970759       1.55031998       0.00000000
Si       0.20432547      -1.08364324       3.74362104       0.00000000
Si      -2.79243180       2.62458697       0.75482344       0.00000000
