10
Lattice="16.28999089631971 0.0 0.0 0.0 16.28999089631971 0.0 0.0 0.0 34.61538196595647" Properties=species:S:1:pos:R:3:initial_magmoms:R:1 pbc="T T T"
Si      -0.21216259       1.94838174      -1.23431598       0.00000000
Si      -0.80228643      -1.90705890       1.10637746       0.00000000
Si       1.07083781      -0.10037898       2.17253182       0.00000000
Si      -0.94835886       1.90690740       1.44159300       0.00000000
Si      -0.49491042      -0.46664334      -2.55887431       0.00000000
Si       2.09090621       1.58788404       0.65731186       0.00000000
Si      -2.08022064      -1.44399447      -1.04057358       0.00000000
Si      -1.97757735       0.84093867       3.18980923       0.00000000
Si      -1.60365669      -1.45572327       3.24979772       0.00000000
Si      -3.92742519       0.38490012      -1.09460822       0.00000000
