10
Lattice="16.28999089631971 0.0 0.0 0.0 16.28999089631971 0.0 0.0 0.0 34.61538196595647" Properties=species:S:1:pos:R:3:initial_magmoms:R:1 pbc="T T T"
Si      -1.36866951      -1.37124822      -1.34816603       0.00000000
Si      -1.63545084       1.58791662       0.62411569       0.00000000
Si       1.75684392       0.53965512      -1.59860846       0.00000000
Si       1.17501399      -1.04700717       1.96075479       0.00000000
Si      -1.16677125      -0.16390998      -3.39809010       0.00000000
Si      -0.56316159      -3.49921322      -0.68995418       0.00000000
Si       2.89600362      -2.07542745       0.77282345       0.00000000
Si      -1.34737848       3.28078971      -0.92841968       0.00000000
Si       3.76652493      -0.27605034      -0.54820411       0.00000000
Si       1.13236677      -0.49300056      -3.66220561       0.00000000
