10
Lattice="16.28999089631971 0.0 0.0 0.0 16.28999089631971 0.0 0.0 0.0 34.61538196595647" Properties=species:S:1:pos:R:3:initial_magmoms:R:1 pbc="T T T"
Si       1.49768631      -1.18364769       1.35279758       0.00000000
Si      -1.21485933       1.53935613       1.33352026       0.00000000
Si       1.72196703       1.01232576      -1.38219786       0.00000000
Si      -1.18785051      -1.62717552      -1.41324788       0.00000000
Si       0.20611737       0.25089858      -3.43599885       0.00000000
Si       0.14450859      -2.52631836       2.70582707       0.00000000
Si      -2.56932396       0.18516843       2.70021938       0.00000000
Si       2.74206312      -2.56798818      -0.05246656       0.00000000
Si      -2.61182457       2.82105333      -0.09633120       0.00000000
Si      -2.69602758      -2.75191857      -0.06188195       0.00000000
