10
Lattice="16.28999089631971 0.0 0.0 0.0 16.28999089631971 0.0 0.0 0.0 34.61538196595647" Properties=species:S:1:pos:R:3:initial_magmoms:R:1 pbc="T T T"
Si       1.35842310       1.35632169      -1.35626604       0.00000000
Si      -1.35723393       1.35672894       1.35782373       0.00000000
Si       1.35775521      -1.35752715       1.35730450       0.00000000
Si      -1.35729909      -1.35826020      -1.35761604       0.00000000
Si       2.71551042       0.00161271      -2.71166669       0.00000000
Si       2.71523349       2.71443528       0.00017308       0.00000000
Si       2.71497285      -2.71504941      -0.00020769       0.00000000
Si       2.71551042       0.00076563       2.71453977       0.00000000
Si      -2.71545992      -0.00151497       2.71467823       0.00000000
Si      -2.71538499       2.71495656       0.00013846       0.00000000
