10
Lattice="16.28999089631971 0.0 0.0 0.0 16.28999089631971 0.0 0.0 0.0 34.61538196595647" Properties=species:S:1:pos:R:3:initial_magmoms:R:1 pbc="T T T"
Si       1.35355239      -1.35389448      -1.35910450       0.00000000
Si       1.34526078       1.35470898       1.36928143       0.00000000
Si      -1.36176255       1.36044306      -1.35681989       0.00000000
Si      -1.38495951      -1.35710361       1.37693143       0.00000000
Si       2.70705591      -2.71137276       0.00159231       0.00000000
Si       2.70866862       2.71547784       0.00197308       0.00000000
Si      -2.71779102      -2.70703962      -0.00058846       0.00000000
Si       2.71044423       0.00236205      -2.71637439       0.00000000
Si      -0.00420282      -2.71218726      -2.71633977       0.00000000
Si      -0.00382815       2.71730232      -2.71616669       0.00000000
