10
Lattice="16.28999089631971 0.0 0.0 0.0 16.28999089631971 0.0 0.0 0.0 34.61538196595647" Properties=species:S:1:pos:R:3:initial_magmoms:R:1 pbc="T T T"
Si      -1.23689970      -1.28761047      -1.51698535       0.00000000
Si       2.25966735      -0.72128862      -0.08006542       0.00000000
Si      -0.28800720      -1.19342169       2.06356253       0.00000000
Si      -0.67020318       2.24490861      -0.64730800       0.00000000
Si      -2.44560141      -0.39047130       2.41338578       0.00000000
Si       3.06827037       1.05647166       1.28748524       0.00000000
Si       0.10469583      -3.36193020       1.23694675       0.00000000
Si       0.24987231       3.40770510       1.11288515       0.00000000
Si      -1.42576596      -3.41384643      -0.56720797       0.00000000
Si       2.91863043      -0.40104351      -2.35166652       0.00000000
