10
Lattice="16.28999089631971 0.0 0.0 0.0 16.28999089631971 0.0 0.0 0.0 34.61538196595647" Properties=species:S:1:pos:R:3:initial_magmoms:R:1 pbc="T T T"
Si      -0.73388079       1.37790594      -1.71837775       0.00000000
Si       0.71773740       1.12650237       1.91727785       0.00000000
Si      -2.06843904      -1.08916569       0.11890390       0.00000000
Si       1.37622807      -1.50516342      -1.17723518       0.00000000
Si      -1.60849089      -0.33705639      -3.09253995       0.00000000
Si       1.26376191       2.45988774      -2.25010493       0.00000000
Si      -1.02545550       2.69019576       2.26976648       0.00000000
Si       0.54910332      -1.14000678      -3.44236320       0.00000000
Si       3.47900643      -1.35260757      -0.18789240       0.00000000
Si       0.74199321      -0.45271539       3.66777869       0.00000000
