10
Lattice="16.28999089631971 0.0 0.0 0.0 16.28999089631971 0.0 0.0 0.0 34.61538196595647" Properties=species:S:1:pos:R:3:initial_magmoms:R:1 pbc="T T T"
Si      -0.72878202       2.07554148       0.83568502       0.00000000
Si       2.15342397      -0.71928495       0.76063883       0.00000000
Si      -1.20295134      -1.89351702       0.86960811       0.00000000
Si      -1.68044382       0.69167340      -2.56219739       0.00000000
Si      -1.05417477       2.70138699      -1.40091991       0.00000000
Si       2.88409563      -1.24323651      -1.39918914       0.00000000
Si       1.02775239      -2.20045320      -2.51716275       0.00000000
Si      -3.30722838      -0.54553581       1.16903133       0.00000000
Si      -3.31760022      -0.43142436      -1.19537365       0.00000000
Si      -0.67639338      -1.93717422       3.23948233       0.00000000
