10
Lattice="16.28999089631971 0.0 0.0 0.0 16.28999089631971 0.0 0.0 0.0 34.61538196595647" Properties=species:S:1:pos:R:3:initial_magmoms:R:1 pbc="T T T"
Si      -0.73067166       0.52395156       2.15982796       0.00000000
Si      -1.85634324      -0.95721669      -1.11797362       0.00000000
Si       0.82328031       1.88690328      -1.22316982       0.00000000
Si       1.94429295      -1.48100535       0.04676541       0.00000000
Si      -2.88409563       1.24323651       1.39918914       0.00000000
Si      -0.51131052      -2.20996656      -2.61083203       0.00000000
Si       1.03273713       1.93728825       2.68300514       0.00000000
Si       2.21728077       0.53375814      -2.62519742       0.00000000
Si       1.05114483      -3.33756036      -1.23462752       0.00000000
Si      -2.90610342      -2.60306055       0.30838861       0.00000000
