10
Lattice="16.28999089631971 0.0 0.0 0.0 16.28999089631971 0.0 0.0 0.0 34.61538196595647" Properties=species:S:1:pos:R:3:initial_magmoms:R:1 pbc="T T T"
Si       0.38009457       1.62544114       1.68739697       0.00000000
Si      -0.55614060       0.68698188      -2.22992415       0.00000000
Si      -1.53795519      -1.50213348       1.13676978       0.00000000
Si       2.11059756      -1.54341234      -0.02772694       0.00000000
Si       0.42264405      -2.54086533       2.10236640       0.00000000
Si      -2.33453619       2.75371766       0.05057310       0.00000000
Si       2.35685349       0.99732267       2.90194755       0.00000000
Si       1.11268845       3.67354880       0.87255042       0.00000000
Si      -3.21370749      -2.46526344      -0.22641934       0.00000000
Si      -2.45791665       2.27361552      -2.29721649       0.00000000
