10
Lattice="16.28999089631971 0.0 0.0 0.0 16.28999089631971 0.0 0.0 0.0 34.61538196595647" Properties=species:S:1:pos:R:3:initial_magmoms:R:1 pbc="T T T"
Si       1.89857018       0.71468465      -1.21250523       0.00000000
Si      -1.28448672      -1.65224324      -1.18059842       0.00000000
Si      -1.28334642       1.38796664       1.49293110       0.00000000
Si       1.41417074      -1.33628826       1.46918840       0.00000000
Si       2.65973672       2.52621410       0.09092774       0.00000000
Si      -2.66996751       2.64043958       0.10177274       0.00000000
Si      -0.84446057       3.49126628      -1.20578552       0.00000000
Si      -2.69824695      -2.78656481       0.20434856       0.00000000
Si      -2.64343110       0.03351016       2.85406753       0.00000000
Si       0.07152776      -2.68038659       2.85510599       0.00000000
