10
Lattice="16.28999089631971 0.0 0.0 0.0 16.28999089631971 0.0 0.0 0.0 34.61538196595647" Properties=species:S:1:pos:R:3:initial_magmoms:R:1 pbc="T T T"
Si       0.33752880      -2.27488221      -0.29689630       0.00000000
Si       1.68274071       0.20654091       1.59358923       0.00000000
Si       0.53072820       1.15702983      -1.96193172       0.00000000
Si      -1.49245722       1.62183240       0.86725426       0.00000000
Si      -2.91652902       1.52990793      -0.96459277       0.00000000
Si       1.67998770       2.88559431      -0.80944654       0.00000000
Si       0.71750934      -1.30396563       3.11950535       0.00000000
Si       0.15514596       3.39553633       0.99055432       0.00000000
Si       3.54423159      -0.83450412       0.53930795       0.00000000
Si       2.59818984      -2.45785149      -0.91568121       0.00000000
