10
Lattice="16.28999089631971 0.0 0.0 0.0 16.28999089631971 0.0 0.0 0.0 34.61538196595647" Properties=species:S:1:pos:R:3:initial_magmoms:R:1 pbc="T T T"
Si       1.42069977      -0.20704590       1.83274704       0.00000000
Si       0.52370721       2.15805033      -0.74717344       0.00000000
Si      -2.22327549      -0.41897880       0.61040799       0.00000000
Si      -0.28302246      -1.15572663      -2.04784714       0.00000000
Si       1.10524392      -2.51225846       1.93963940       0.00000000
Si      -1.67511699       2.88020232      -0.52622333       0.00000000
Si      -3.19331241       1.10284929      -0.98321586       0.00000000
Si      -1.01561634      -3.20383428      -1.23300059       0.00000000
Si      -2.39580288      -0.16376337      -2.77819749       0.00000000
Si       3.52005723       0.50852493       1.14888517       0.00000000
