10
Lattice="16.28999089631971 0.0 0.0 0.0 16.28999089631971 0.0 0.0 0.0 34.61538196595647" Properties=species:S:1:pos:R:3:initial_magmoms:R:1 pbc="T T T"
Si       0.18311589       1.44651942      -1.81945472       0.00000000
Si      -2.36073051       0.03681540      -0.04486156       0.00000000
Si       1.40263416       0.93186945       1.76860470       0.00000000
Si       1.03848750      -2.29392522      -0.43736560       0.00000000
Si      -2.26729107      -1.05635763       2.01866636       0.00000000
Si      -0.15451065      -2.04832089       2.74901671       0.00000000
Si       1.36383138      -0.12054600      -3.19070923       0.00000000
Si       1.07626401       3.30307443      -0.53806180       0.00000000
Si       2.80999242      -1.44650313      -1.76365470       0.00000000
Si       3.15973872      -0.67838076       1.71010467       0.00000000
