10
Lattice="16.28999089631971 0.0 0.0 0.0 16.28999089631971 0.0 0.0 0.0 34.61538196595647" Properties=species:S:1:pos:R:3:initial_magmoms:R:1 pbc="T T T"
Si      -0.63285021       2.12577984      -0.76039652       0.00000000
Si       2.29583115       0.49120866      -0.16421546       0.00000000
Si      -0.65896308      -0.32024511       2.27160110       0.00000000
Si      -1.05208965      -1.48320450      -1.54824305       0.00000000
Si       3.09560499      -1.24074414       1.09983515       0.00000000
Si      -3.25091385      -0.76105251      -1.32729295       0.00000000
Si       0.53735823       3.48661386       0.70494265       0.00000000
Si       2.76429897      -0.34544574      -2.31500881       0.00000000
Si       1.94426037      -3.13272990       0.34781555       0.00000000
Si       2.55972915       2.39707350       1.19388519       0.00000000
