10
Lattice="16.28999089631971 0.0 0.0 0.0 16.28999089631971 0.0 0.0 0.0 34.61538196595647" Properties=species:S:1:pos:R:3:initial_magmoms:R:1 pbc="T T T"
Si      -0.46079523       1.96962390       1.16460056       0.00000000
Si      -2.34087300      -0.42484320      -0.38610019       0.00000000
Si       1.79597250      -0.50515290      -1.54080074       0.00000000
Si       0.87052131      -1.75185918       1.56451229       0.00000000
Si       1.89038934       2.16800352       1.67292773       0.00000000
Si       2.81090466      -0.18019998       1.99142404       0.00000000
Si      -2.48564223       0.88484022      -2.29939726       0.00000000
Si       1.06885206      -2.77910658      -2.05158560       0.00000000
Si       0.81770913      -3.66169389       0.15462700       0.00000000
Si       3.82202496      -0.33084990      -0.20949241       0.00000000
