10
Lattice="16.28999089631971 0.0 0.0 0.0 16.28999089631971 0.0 0.0 0.0 34.61538196595647" Properties=species:S:1:pos:R:3:initial_magmoms:R:1 pbc="T T T"
Si      -1.44515269       1.31300658      -1.31082640       0.00000000
Si      -1.36088778      -1.34473950       1.36838835       0.00000000
Si       1.35523026       1.36860435       1.36949605       0.00000000
Si       1.22852664      -1.56848265      -1.39260529       0.00000000
Si      -2.27567065      -0.60343047      -2.68931854       0.00000000
Si      -2.71455650      -2.70673011       0.00939808       0.00000000
Si       2.71862181      -2.70575271       0.01747732       0.00000000
Si      -0.00374670      -2.70275535       2.72915439       0.00000000
Si       2.70969489       2.72279205       0.00279692       0.00000000
Si       2.71197549       0.01182654       2.73050439       0.00000000
