10
Lattice="16.28999089631971 0.0 0.0 0.0 16.28999089631971 0.0 0.0 0.0 34.61538196595647" Properties=species:S:1:pos:R:3:initial_magmoms:R:1 pbc="T T T"
Si       1.34959392       1.33431390      -1.35917373       0.00000000
Si       1.49117031      -1.19751048       1.37918143       0.00000000
Si      -1.36518345      -1.38295584      -1.35294296       0.00000000
Si      -1.39400046       1.35314514       1.40202760       0.00000000
Si      -0.27298782      -2.01476349       2.67196283       0.00000000
Si      -2.21728077      -0.53375814       2.62519742       0.00000000
Si       2.70089829       2.68936497       0.02166924       0.00000000
Si      -0.00377928       2.69078220      -2.71408977       0.00000000
Si       2.70847314      -0.02213811      -2.71453977       0.00000000
Si      -2.71979469      -0.02261052      -2.71436669       0.00000000
