10
Lattice="16.28999089631971 0.0 0.0 0.0 16.28999089631971 0.0 0.0 0.0 34.61538196595647" Properties=species:S:1:pos:R:3:initial_magmoms:R:1 pbc="T T T"
Si       1.35337320      -1.35646830       1.35491604       0.00000000
Si       1.35529542       1.35878148      -1.35716604       0.00000000
Si      -1.35941679      -1.35645201      -1.35754681       0.00000000
Si      -1.36085031       1.36036161       1.36689297       0.00000000
Si       0.00377928      -2.69078220       2.71408977       0.00000000
Si       2.71225242      -2.71292031      -0.00045000       0.00000000
Si       2.71280628       0.00138465      -2.71453977       0.00000000
Si      -0.00215028      -2.71407690      -2.71478208       0.00000000
Si       2.71238274       2.71668330      -0.00038077       0.00000000
Si      -2.71601541      -2.71339272      -0.00027692       0.00000000
