10
Lattice="16.28999089631971 0.0 0.0 0.0 16.28999089631971 0.0 0.0 0.0 34.61538196595647" Properties=species:S:1:pos:R:3:initial_magmoms:R:1 pbc="T T T"
Si      -1.30424533       1.41959205       1.32665602       0.00000000
Si       1.44515269      -1.31300658       1.31082640       0.00000000
Si       1.09346788       1.58645052      -1.39558710       0.00000000
Si      -0.83051796      -1.91643705      -1.37849214       0.00000000
Si       1.17754057       0.02911023      -3.16523026       0.00000000
Si      -0.60632520       3.40387695      -1.42656788       0.00000000
Si      -2.63085685       0.05857884       2.68305706       0.00000000
Si       0.08426491      -2.65774608       2.67921475       0.00000000
Si      -2.60910970       2.77210188      -0.16983354       0.00000000
Si      -2.65602490      -2.76726375      -0.07093388       0.00000000
