10
Lattice="16.28999089631971 0.0 0.0 0.0 16.28999089631971 0.0 0.0 0.0 34.61538196595647" Properties=species:S:1:pos:R:3:initial_magmoms:R:1 pbc="T T T"
Si      -0.03660363      -2.09347677       1.07127744       0.00000000
Si      -1.29674916       1.69194456       1.01880049       0.00000000
Si      -1.24510986      -0.00521280      -2.01247020       0.00000000
Si       2.23793649       0.40192317      -0.74873113       0.00000000
Si      -3.37514139       0.56591460       0.97033893       0.00000000
Si       2.12724594      -2.83040379       0.79546192       0.00000000
Si       2.21350149      -0.86573205      -2.80277443       0.00000000
Si      -3.44437389       0.53910126      -1.39950067       0.00000000
Si      -0.27987849       1.50529374      -3.53838632       0.00000000
Si       3.76711137      -0.83124612       0.72834266       0.00000000
