10
Lattice="16.28999089631971 0.0 0.0 0.0 16.28999089631971 0.0 0.0 0.0 34.61538196595647" Properties=species:S:1:pos:R:3:initial_magmoms:R:1 pbc="T T T"
Si       1.14953643      -1.72833642       1.39285452       0.00000000
Si      -1.79123211       1.06391619       1.40088529       0.00000000
Si       0.46542159       0.67184847      -2.42608963       0.00000000
Si      -1.17444384      -1.32730920      -2.35897037       0.00000000
Si      -0.50990958      -3.20197869      -0.91415813       0.00000000
Si       0.00907353       1.96880940       2.85482357       0.00000000
Si       1.84127499      -3.00359907      -0.40583096       0.00000000
Si       1.65804507       2.82183525      -1.72682391       0.00000000
Si       1.48890600       3.17749482       1.52127766       0.00000000
Si       3.12688179       2.26864314       0.00488077       0.00000000
