10
Lattice="16.28999089631971 0.0 0.0 0.0 16.28999089631971 0.0 0.0 0.0 34.61538196595647" Properties=species:S:1:pos:R:3:initial_magmoms:R:1 pbc="T T T"
Si       1.23538473      -1.35293337      -1.55108152       0.00000000
Si      -1.61326386      -1.23321816       1.32168525       0.00000000
Si      -1.46075688       1.37171574      -1.52508535       0.00000000
Si       1.86841413       0.79733034       1.49278918       0.00000000
Si       2.62514979       2.64047868      -0.00934616       0.00000000
Si       2.64846078      -2.62824489      -0.11229236       0.00000000
Si       2.60024238       0.00775404      -2.92642064       0.00000000
Si      -2.85951402      -2.68915320      -0.17072316       0.00000000
Si      -0.11591964      -2.70798444      -2.93192449       0.00000000
Si      -0.11561013       2.72298402      -2.92607449       0.00000000
