10
Lattice="16.28999089631971 0.0 0.0 0.0 16.28999089631971 0.0 0.0 0.0 34.61538196595647" Properties=species:S:1:pos:R:3:initial_magmoms:R:1 pbc="T T T"
Si      -0.31703598      -2.13221439       0.85548503       0.00000000
Si      -2.09564334       1.02455955       0.06206541       0.00000000
Si       1.88731053       0.59023557       1.29849293       0.00000000
Si       0.35492652      -0.01009980      -2.37662422       0.00000000
Si       3.10230018      -1.45200915       0.79705423       0.00000000
Si      -1.46904849       3.19795506      -0.66897725       0.00000000
Si      -3.40325793      -0.34023294      -1.46855840       0.00000000
Si      -1.26249129      -1.99304892       2.99630914       0.00000000
Si      -1.48724442      -3.49304841      -0.60985414       0.00000000
Si       1.70533494      -3.22175475       1.34442757       0.00000000
