10
Lattice="16.28999089631971 0.0 0.0 0.0 16.28999089631971 0.0 0.0 0.0 34.61538196595647" Properties=species:S:1:pos:R:3:initial_magmoms:R:1 pbc="T T T"
Si       0.14410134       1.31969430       1.95808941       0.00000000
Si      -0.62659485      -2.17339551       0.73104266       0.00000000
Si      -1.97675892       0.62811847      -1.21455059       0.00000000
Si       2.09342790       0.42601608      -1.19419673       0.00000000
Si      -1.86090444      -1.57612266       2.61903588       0.00000000
Si      -1.24416504       2.67622613      -2.02939713       0.00000000
Si       1.46904849      -3.19795506       0.66897725       0.00000000
Si       0.84263283       1.97510290      -3.04193224       0.00000000
Si      -0.71164494       0.15244182       3.77152105       0.00000000
Si      -2.35685349      -0.99732267      -2.90194755       0.00000000
