10
Lattice="16.28999089631971 0.0 0.0 0.0 16.28999089631971 0.0 0.0 0.0 34.61538196595647" Properties=species:S:1:pos:R:3:initial_magmoms:R:1 pbc="T T T"
Si      -1.68274071      -0.20654091      -1.59358923       0.00000000
Si      -0.96523137      -1.51050654       1.52591612       0.00000000
Si      -0.21395286       2.11965480       1.04133512       0.00000000
Si       1.86149088      -1.04104503      -1.05428128       0.00000000
Si      -1.34521191      -2.48142312      -1.89048553       0.00000000
Si       2.49337998      -2.37102579       0.73561189       0.00000000
Si      -3.17519793       1.41529149      -0.72633497       0.00000000
Si       2.02500990       2.78928783       0.94728507       0.00000000
Si      -1.52759475       3.18899542      -0.60303491       0.00000000
Si      -0.00275301       2.67905340      -2.40303577       0.00000000
