10
Lattice="16.28999089631971 0.0 0.0 0.0 16.28999089631971 0.0 0.0 0.0 34.61538196595647" Properties=species:S:1:pos:R:3:initial_magmoms:R:1 pbc="T T T"
Si       2.23896276       0.66963303      -0.09405005       0.00000000
Si      -1.31364189       1.06934062      -1.64437002       0.00000000
Si       0.21395286      -2.11965480      -1.04133512       0.00000000
Si      -1.10931642      -0.01430262       2.09925101       0.00000000
Si       0.21119985       0.55939860      -3.44437089       0.00000000
Si      -2.96124507      -0.70436331      -1.76767008       0.00000000
Si       2.45531025       0.30836970      -2.51051660       0.00000000
Si       3.28386852      -0.81663399       1.53958920       0.00000000
Si      -0.04329882       1.78241012       3.28136697       0.00000000
Si      -0.75127851      -3.63016134       0.48458100       0.00000000
