10
Lattice="16.28999089631971 0.0 0.0 0.0 16.28999089631971 0.0 0.0 0.0 34.61538196595647" Properties=species:S:1:pos:R:3:initial_magmoms:R:1 pbc="T T T"
Si      -1.35684297       1.35686182      -1.35716604       0.00000000
Si       1.35715248      -1.35721412      -1.35706219       0.00000000
Si      -1.35775521      -1.35690461       1.35685450       0.00000000
Si       1.35847197       1.35775288       1.35758142       0.00000000
Si       2.71374008      -0.00217540      -2.71388208       0.00000000
Si      -0.00034209      -2.71402451      -2.71440131       0.00000000
Si      -2.71484253      -2.71480643       0.00006923       0.00000000
Si      -2.71492398      -0.00135145      -2.71488592       0.00000000
Si       2.71496611       2.71496726       0.00013846       0.00000000
Si       0.00102627       2.71488581      -2.71543977       0.00000000
