10
Lattice="16.28999089631971 0.0 0.0 0.0 16.28999089631971 0.0 0.0 0.0 34.61538196595647" Properties=species:S:1:pos:R:3:initial_magmoms:R:1 pbc="T T T"
Si      -1.35992178      -1.33849646      -1.38257374       0.00000000
Si      -1.24908462       1.42187102       1.41711991       0.00000000
Si       1.35461124       1.37682917      -1.38285067       0.00000000
Si       1.38083814      -1.42100181       1.53415459       0.00000000
Si       0.56837439       2.16972863       2.88986678       0.00000000
Si      -2.70506853      -2.68976475       0.01841539       0.00000000
Si       2.41557894       0.34083404       2.94390142       0.00000000
Si       2.72295495      -2.69347887      -0.00342692       0.00000000
Si      -0.00122175      -2.69631333      -2.74372055       0.00000000
Si      -2.69524566       2.74782815      -0.00993462       0.00000000
