10
Lattice="16.28999089631971 0.0 0.0 0.0 16.28999089631971 0.0 0.0 0.0 34.61538196595647" Properties=species:S:1:pos:R:3:initial_magmoms:R:1 pbc="T T T"
Si      -1.35604965      -1.35580041       1.35747758       0.00000000
Si       1.35892809       1.35938421       1.35751219       0.00000000
Si       1.36101321      -1.35765747      -1.35993527       0.00000000
Si      -1.35613273       1.36418976      -1.36000450       0.00000000
Si       0.01671354       2.69731449      -2.71243169       0.00000000
Si      -2.71305293       0.00182448       2.71450516       0.00000000
Si      -2.71462407      -2.71414206      -0.00100385       0.00000000
Si       0.00210141      -2.71402803       2.71516285       0.00000000
Si      -2.71462379       2.71585251      -0.00010385       0.00000000
Si       0.00133578       2.71689507       2.71419362       0.00000000
