10
Lattice="16.28999089631971 0.0 0.0 0.0 16.28999089631971 0.0 0.0 0.0 34.61538196595647" Properties=species:S:1:pos:R:3:initial_magmoms:R:1 pbc="T T T"
Si      -1.35469269       1.36060596      -1.35903527       0.00000000
Si       1.35953964      -1.35695700      -1.35993527       0.00000000
Si      -1.35562122      -1.34390871       1.38859682       0.00000000
Si       1.36272270       1.36472733       1.38243528       0.00000000
Si      -2.71474479      -2.71173114       0.00034615       0.00000000
Si      -2.71104696       2.71565703       0.00103846       0.00000000
Si       2.71916657      -2.70782154      -0.00155769       0.00000000
Si      -2.71248048       0.00149868      -2.71682439       0.00000000
Si       0.00214354      -2.71300176      -2.71723977       0.00000000
Si       2.71509407       2.71743264       0.00051923       0.00000000
