10
Lattice="16.28999089631971 0.0 0.0 0.0 16.28999089631971 0.0 0.0 0.0 34.61538196595647" Properties=species:S:1:pos:R:3:initial_magmoms:R:1 pbc="T T T"
Si      -1.35635427       1.35505107       1.36007373       0.00000000
Si       1.35730398       1.35653346      -1.35841219       0.00000000
Si       1.35469269      -1.36060596       1.35903527       0.00000000
Si      -1.35778779      -1.35910728      -1.35778912       0.00000000
Si       2.71430726      -0.00109143      -2.71543977       0.00000000
Si      -0.00055386       2.71397916      -2.71582054       0.00000000
Si       2.71400101       2.71591767      -0.00155769       0.00000000
Si      -2.71601541       2.71490769      -0.00155769       0.00000000
Si      -2.71565703      -0.00074934      -2.71543977       0.00000000
Si      -0.00048870      -2.71596654      -2.71550900       0.00000000
