10
Lattice="16.28999089631971 0.0 0.0 0.0 16.28999089631971 0.0 0.0 0.0 34.61538196595647" Properties=species:S:1:pos:R:3:initial_magmoms:R:1 pbc="T T T"
Si      -0.79977384       1.73195280      -1.26405061       0.00000000
Si       0.30994983       0.68080797       2.16927797       0.00000000
Si       2.13353388      -0.67852737      -0.61688107       0.00000000
Si      -1.15134462      -1.89198576      -0.75201959       0.00000000
Si      -0.52706295      -1.45937223      -2.99551298       0.00000000
Si      -3.09560499       1.24074414      -1.09983515       0.00000000
Si       2.17267875      -2.70962973       0.56810797       0.00000000
Si      -0.33130602       0.89529840      -3.41484395       0.00000000
Si       3.51507642       1.02509712       0.27858475       0.00000000
Si      -0.53587584       3.63781764       0.09405005       0.00000000
