10
Lattice="16.28999089631971 0.0 0.0 0.0 16.28999089631971 0.0 0.0 0.0 34.61538196595647" Properties=species:S:1:pos:R:3:initial_magmoms:R:1 pbc="T T T"
Si      -1.35839052      -1.35641943       1.35678527       0.00000000
Si       1.35707103      -1.35734796      -1.35747758       0.00000000
Si       1.35832536       1.35651717       1.35709681       0.00000000
Si      -1.35783666       1.35788553      -1.35730450       0.00000000
Si       2.71464858      -0.00039096       2.71325900       0.00000000
Si       2.71335801      -0.00076563      -2.71467823       0.00000000
Si      -2.71437012      -0.00052128      -2.71419362       0.00000000
Si      -2.71726974       0.00003258       2.71215131       0.00000000
Si       2.71462628       2.71482624      -0.00038077       0.00000000
Si       2.71492887      -2.71479366      -0.00006923       0.00000000
