10
Lattice="16.28999089631971 0.0 0.0 0.0 16.28999089631971 0.0 0.0 0.0 34.61538196595647" Properties=species:S:1:pos:R:3:initial_magmoms:R:1 pbc="T T T"
Si       1.39696524       1.76974560      -0.54737334       0.00000000
Si      -2.02237092       1.08954036      -0.48894254       0.00000000
Si      -0.26389800      -1.90586484      -1.35810066       0.00000000
Si      -0.12737151      -0.84186720       2.21227030       0.00000000
Si       1.62728955       1.16680383      -2.86411292       0.00000000
Si      -2.41008921      -0.93955833       2.44526656       0.00000000
Si      -2.96782623       1.22870583       1.65188157       0.00000000
Si       0.53587584      -3.63781764      -0.09405005       0.00000000
Si      -2.55972915      -2.39707350      -1.19388519       0.00000000
Si       0.84582567      -2.95700967       2.07522792       0.00000000
