10
Lattice="16.28999089631971 0.0 0.0 0.0 16.28999089631971 0.0 0.0 0.0 34.61538196595647" Properties=species:S:1:pos:R:3:initial_magmoms:R:1 pbc="T T T"
Si      -1.39696524      -1.76974560       0.54737334       0.00000000
Si       2.12077881      -0.55443015       0.80934270       0.00000000
Si       0.23032431      -0.60294177      -2.31673958       0.00000000
Si      -1.21498965       2.04224472       0.50143870       0.00000000
Si      -3.41933616      -0.68020524       0.05843080       0.00000000
Si      -3.10230018       1.45200915      -0.79705423       0.00000000
Si       0.27714177       3.57277167      -0.47914638       0.00000000
Si       2.99182044      -2.31762717      -0.50095409       0.00000000
Si       1.98682614      -1.47224133       2.93237449       0.00000000
Si       1.59273846       1.04482431      -3.33266699       0.00000000
