10
Lattice="16.28999089631971 0.0 0.0 0.0 16.28999089631971 0.0 0.0 0.0 34.61538196595647" Properties=species:S:1:pos:R:3:initial_magmoms:R:1 pbc="T T T"
Si       1.83697443       1.42320843      -0.19356932       0.00000000
Si      -1.89112239       1.15243605       0.76846191       0.00000000
Si      -0.62859852      -1.21150359      -1.91603169       0.00000000
Si       0.17959725      -1.69147215       1.65395849       0.00000000
Si       2.88256437      -0.07213212      -1.74330084       0.00000000
Si      -3.35500695      -0.73414143       0.55100796       0.00000000
Si       1.33542162      -0.24373098       3.21933617       0.00000000
Si       2.92855104       0.80531244       1.82308934       0.00000000
Si      -2.11602213      -1.82110797       2.21728953       0.00000000
Si      -2.91131622      -1.30919472      -1.68303543       0.00000000
