10
Lattice="16.28999089631971 0.0 0.0 0.0 16.28999089631971 0.0 0.0 0.0 34.61538196595647" Properties=species:S:1:pos:R:3:initial_magmoms:R:1 pbc="T T T"
Si      -1.41376023      -1.13432157       1.38494698       0.00000000
Si       0.66173305      -1.82449629      -1.32177114       0.00000000
Si       1.28448672       1.65224324       1.18059842       0.00000000
Si      -1.80496458       0.64594641      -1.60257127       0.00000000
Si      -0.23063382      -0.43365609      -3.14001432       0.00000000
Si       0.02036250      -2.41329834       2.66946567       0.00000000
Si      -2.68294671      -2.54435139      -0.05882822       0.00000000
Si      -2.54288529       2.68907894      -0.07509746       0.00000000
Si       2.69865746       0.31595498       2.64978682       0.00000000
Si      -2.72530071       0.32433390       2.67215529       0.00000000
