10
Lattice="16.28999089631971 0.0 0.0 0.0 16.28999089631971 0.0 0.0 0.0 34.61538196595647" Properties=species:S:1:pos:R:3:initial_magmoms:R:1 pbc="T T T"
Si       0.75673566       1.84314834      -1.50213534       0.00000000
Si      -1.86841413      -0.79733034      -1.49278918       0.00000000
Si      -0.34011891       0.02922426       2.50348967       0.00000000
Si       1.75764213      -1.82853621      -0.05220003       0.00000000
Si       2.09885247       0.57067128      -3.03971685       0.00000000
Si      -0.63302940      -2.15026371      -3.04387070       0.00000000
Si       3.39519438      -0.86920182      -1.59923154       0.00000000
Si       0.78004665      -3.42557523      -1.60508154       0.00000000
Si       1.79147646       3.60498419      -0.09238851       0.00000000
Si      -3.48167799      -2.03054850      -0.17110393       0.00000000
