10
Lattice="16.28999089631971 0.0 0.0 0.0 16.28999089631971 0.0 0.0 0.0 34.61538196595647" Properties=species:S:1:pos:R:3:initial_magmoms:R:1 pbc="T T T"
Si       1.49213142       1.53052695      -0.98058509       0.00000000
Si      -1.88731053      -0.59023557      -1.29849293       0.00000000
Si       1.21498965      -2.04224472      -0.50143870       0.00000000
Si      -0.55408806       0.48975885       2.33037805       0.00000000
Si      -2.20434651      -2.72244996      -0.44300791       0.00000000
Si       3.35367117       1.29826413       0.47537331       0.00000000
Si      -0.18197559      -3.81199032       0.04593464       0.00000000
Si      -2.20376007      -0.95993712       3.15280537       0.00000000
Si       2.02566150       1.08773217      -3.24706310       0.00000000
Si      -1.53238401      -0.60033537      -3.67511716       0.00000000
