10
Lattice="16.28999089631971 0.0 0.0 0.0 16.28999089631971 0.0 0.0 0.0 34.61538196595647" Properties=species:S:1:pos:R:3:initial_magmoms:R:1 pbc="T T T"
Si       0.95288355       2.12213088       0.40029250       0.00000000
Si      -1.40260484       0.77905296      -1.74987777       0.00000000
Si      -1.38782655      -0.90808605       1.71062390       0.00000000
Si       1.81089414      -1.51363422      -0.37270403       0.00000000
Si       0.22304268      -0.96940161       3.46683629       0.00000000
Si      -0.89786407      -2.95683048      -2.02091636       0.00000000
Si      -2.98203830       0.81919152       2.02884329       0.00000000
Si       1.52282178      -3.20650731       1.17983134       0.00000000
Si      -2.38913117      -1.18415268      -2.63876666       0.00000000
Si       1.81962558       2.82237282      -1.69258928       0.00000000
