10
Lattice="16.28999089631971 0.0 0.0 0.0 16.28999089631971 0.0 0.0 0.0 34.61538196595647" Properties=species:S:1:pos:R:3:initial_magmoms:R:1 pbc="T T T"
Si       1.37284627       1.33312473      -1.35242719       0.00000000
Si      -1.35849106       1.35166275       1.35990066       0.00000000
Si       1.35613273      -1.36418976       1.36000450       0.00000000
Si      -1.38748234      -1.35785295      -1.35359719       0.00000000
Si      -2.71241599       2.70891297       0.00045000       0.00000000
Si       2.71365988       2.70831024      -0.00058846       0.00000000
Si       0.00066300       2.70959715       2.71717054       0.00000000
Si      -2.71477804      -0.00491958       2.71710131       0.00000000
Si       2.71506082      -0.00480555       2.71751670       0.00000000
Si      -2.71409386      -2.71886616       0.00280385       0.00000000
