10
Lattice="16.28999089631971 0.0 0.0 0.0 16.28999089631971 0.0 0.0 0.0 34.61538196595647" Properties=species:S:1:pos:R:3:initial_magmoms:R:1 pbc="T T T"
Si       1.35056069       1.34851878       1.36253143       0.00000000
Si      -1.35769158      -1.33876107       1.36671989       0.00000000
Si       1.35697732      -1.35501849      -1.35647373       0.00000000
Si      -1.35632322       1.35690813      -1.35616219       0.00000000
Si      -0.01454850      -2.61395856       2.80121674       0.00000000
Si       2.71276307      -2.71410948       0.00463846       0.00000000
Si       0.00028029      -2.71440270      -2.71332823       0.00000000
Si      -2.71464858       0.00039096      -2.71325900       0.00000000
Si       2.71466900       0.00066789      -2.71363977       0.00000000
Si      -0.00002229       2.71521720      -2.71363977       0.00000000
