10
Lattice="16.28999089631971 0.0 0.0 0.0 16.28999089631971 0.0 0.0 0.0 34.61538196595647" Properties=species:S:1:pos:R:3:initial_magmoms:R:1 pbc="T T T"
Si       0.79208007       0.18515214       2.26654725       0.00000000
Si      -0.45363252      -2.22193971      -0.81304655       0.00000000
Si      -2.43052894       0.25658379       0.11533852       0.00000000
Si       2.12481384       0.39913758      -1.14639286       0.00000000
Si      -1.04111182       3.32519625      -0.34788478       0.00000000
Si       1.15070442      -2.11173786       2.71938593       0.00000000
Si       2.40132030       1.94623146       2.03337790       0.00000000
Si      -2.11256443      -3.04574130       0.79303884       0.00000000
Si      -0.46400436      -2.10782826      -3.17745153       0.00000000
Si       2.85359586      -1.67640390      -1.98207788       0.00000000
