10
Lattice="16.28999089631971 0.0 0.0 0.0 16.28999089631971 0.0 0.0 0.0 34.61538196595647" Properties=species:S:1:pos:R:3:initial_magmoms:R:1 pbc="T T T"
Si       1.35739609       1.35604476       1.35730450       0.00000000
Si      -1.35649414      -1.35721438       1.35744296       0.00000000
Si      -1.35732493       1.35764118      -1.35730450       0.00000000
Si       1.35747266      -1.35771123      -1.35754681       0.00000000
Si      -2.71462402       2.71450044       0.00041538       0.00000000
Si      -2.71393984      -0.00008145      -2.71557823       0.00000000
Si      -0.00110340       2.71417464      -2.71571669       0.00000000
Si       2.71562208       2.71428867       0.00045000       0.00000000
Si      -2.71496611      -2.71496726      -0.00013846       0.00000000
Si      -0.00214354       2.71300176       2.71723977       0.00000000
