10
Lattice="16.28999089631971 0.0 0.0 0.0 16.28999089631971 0.0 0.0 0.0 34.61538196595647" Properties=species:S:1:pos:R:3:initial_magmoms:R:1 pbc="T T T"
Si       1.35680550      -1.35689184       1.35702758       0.00000000
Si       1.35582810       1.35835794      -1.35768527       0.00000000
Si      -1.35788579       1.35765747       1.35702758       0.00000000
Si      -1.35915406      -1.35793440      -1.35726989       0.00000000
Si      -0.00088618      -2.71257822       2.71419362       0.00000000
Si      -0.00066300      -2.70959715      -2.71717054       0.00000000
Si       2.71219866      -0.00021177       2.71481669       0.00000000
Si       0.00048870       2.71497285       2.71363977       0.00000000
Si      -2.71418671      -0.00065160       2.71450516       0.00000000
Si       2.71439781      -2.71440270       0.00034615       0.00000000
