10
Lattice="16.28999089631971 0.0 0.0 0.0 16.28999089631971 0.0 0.0 0.0 34.61538196595647" Properties=species:S:1:pos:R:3:initial_magmoms:R:1 pbc="T T T"
Si       1.39924584      -0.58396392      -1.81658165       0.00000000
Si      -1.60924023      -1.76107932       0.23316934       0.00000000
Si       1.33643160       1.10760597       1.67687389       0.00000000
Si      -1.78199568       1.60068798      -0.38485403       0.00000000
Si       1.59708789       3.04594560       0.30672707       0.00000000
Si      -0.27650646      -1.54709388      -3.17977076       0.00000000
Si      -0.01410714       0.71224767       3.56497095       0.00000000
Si      -0.49396167       3.56362062      -0.68590418       0.00000000
Si      -2.40132030      -1.94623146      -2.03337790       0.00000000
Si       3.35984508      -1.62269577      -0.85098503       0.00000000
