10
Lattice="16.28999089631971 0.0 0.0 0.0 16.28999089631971 0.0 0.0 0.0 34.529650657227435" Properties=species:S:1:pos:R:3:initial_magmoms:R:1 pbc="T T T"
Si       1.31932710      -1.30335313      -1.44551557       0.00000000
Si       1.82467548       0.80259201       1.34113238       0.00000000
Si      -1.36275624       1.42467453      -1.38857615       0.00000000
Si      -1.43148375      -1.33135401       1.43381002       0.00000000
Si       2.61855234      -2.68034119      -0.08742912       0.00000000
Si       2.66282856       2.69948106      -0.06201529       0.00000000
Si       0.80943381       1.33071381       3.47734494       0.00000000
Si      -0.01360215      -2.66391089      -2.78499053       0.00000000
Si       2.70213633       0.05204655      -2.78219363       0.00000000
Si      -2.79306711      -2.69699588       0.03725751       0.00000000
