10
Lattice="16.28999089631971 0.0 0.0 0.0 16.28999089631971 0.0 0.0 0.0 34.529650657227435" Properties=species:S:1:pos:R:3:initial_magmoms:R:1 pbc="T T T"
Si       1.65954375       0.99889791       1.38043202       0.00000000
Si       1.36277253      -0.30356904      -1.95203130       0.00000000
Si      -1.02802932      -1.79953416       1.30170782       0.00000000
Si      -1.99019817       1.64096989       0.04661505       0.00000000
Si       0.31245849       1.64476546      -3.14817360       0.00000000
Si       0.27025110       2.23438201       2.79497793       0.00000000
Si       2.69983944       2.43867490      -0.16073561       0.00000000
Si      -2.44643220      -0.50536615       2.78467428       0.00000000
Si      -1.12285341       3.51316330       1.31640020       0.00000000
Si       1.12498740      -2.44026873      -2.86858686       0.00000000
