10
Lattice="16.28999089631971 0.0 0.0 0.0 16.28999089631971 0.0 0.0 0.0 34.529650657227435" Properties=species:S:1:pos:R:3:initial_magmoms:R:1 pbc="T T T"
Si      -1.36870209       1.21818249      -1.46499031       0.00000000
Si       1.34188875       1.36510200       1.36696057       0.00000000
Si      -1.37595114      -1.35052245       1.35784474       0.00000000
Si       1.25488386      -1.44596556      -1.45103687       0.00000000
Si      -2.18492883      -0.70788195      -2.65259549       0.00000000
Si      -0.41076864      -2.31748056      -2.94277182       0.00000000
Si       2.68822467       2.68970706      -0.01105640       0.00000000
Si       2.69472438       0.00591327       2.72225012       0.00000000
Si       2.70205488      -2.72422557      -0.02678121       0.00000000
Si      -0.01643661      -2.71015101       2.72159406       0.00000000
