10
Lattice="16.28999089631971 0.0 0.0 0.0 16.28999089631971 0.0 0.0 0.0 34.529650657227435" Properties=species:S:1:pos:R:3:initial_magmoms:R:1 pbc="T T T"
Si      -1.35896067      -1.35656604      -1.35601467       0.00000000
Si       1.35804843      -1.35711990       1.35673979       0.00000000
Si       1.35861858       1.35679410      -1.35705056       0.00000000
Si      -1.35780408       1.35791811       1.35753397       0.00000000
Si       2.71248048       0.00148239       2.71202934       0.00000000
Si       2.71298547      -0.00078192      -2.71524060       0.00000000
Si      -2.71501520       0.00114030      -2.71347958       0.00000000
Si      -0.00083079       2.71342530       2.71534419       0.00000000
Si       2.71494027      -2.71475945       0.00058700       0.00000000
Si       2.71464705       2.71505430       0.00051795       0.00000000
