10
Lattice="16.28999089631971 0.0 0.0 0.0 16.28999089631971 0.0 0.0 0.0 34.529650657227435" Properties=species:S:1:pos:R:3:initial_magmoms:R:1 pbc="T T T"
Si       1.35513252       1.35780408      -1.35691244       0.00000000
Si       1.35711990      -1.35845568       1.35618732       0.00000000
Si      -1.35602847      -1.35826020      -1.35756850       0.00000000
Si      -1.35759231       1.35741312       1.35694697       0.00000000
Si      -0.00216657      -2.71357191       2.71151139       0.00000000
Si      -0.00114030       2.71300176       2.71527513       0.00000000
Si       2.71477737      -0.00109143       2.71410112       0.00000000
Si       0.00229689       2.71699281      -2.71220199       0.00000000
Si      -2.71464705      -2.71505430      -0.00051795       0.00000000
Si       2.71446786       2.71524978      -0.00020718       0.00000000
