10
Lattice="16.28999089631971 0.0 0.0 0.0 16.28999089631971 0.0 0.0 0.0 34.529650657227435" Properties=species:S:1:pos:R:3:initial_magmoms:R:1 pbc="T T T"
Si       1.62662166      -1.05893145      -1.26112714       0.00000000
Si      -1.08263340       1.68378327      -1.23909721       0.00000000
Si       1.85235219       0.90440451       1.49012791       0.00000000
Si      -1.93947111      -1.73232747       0.10876846       0.00000000
Si       0.28116540      -2.40090165      -2.61051211       0.00000000
Si      -2.44830555       0.32643531      -2.60857845       0.00000000
Si      -2.84172534      -0.91572606       2.17564544       0.00000000
Si       2.95094979      -2.46029499       0.11629593       0.00000000
Si       0.86851764      -0.14229315       3.75779492       0.00000000
Si      -2.58758505       2.93148324       0.14668204       0.00000000
