10
Lattice="16.28999089631971 0.0 0.0 0.0 16.28999089631971 0.0 0.0 0.0 34.529650657227435" Properties=species:S:1:pos:R:3:initial_magmoms:R:1 pbc="T T T"
Si       1.36290285       1.35237951      -1.36181565       0.00000000
Si       1.08263340      -1.68378327       1.23909721       0.00000000
Si      -1.36567215      -1.35734796      -1.36948124       0.00000000
Si      -1.50495165       1.24769997       1.38577924       0.00000000
Si      -0.85683771      -3.41611074       1.34786567       0.00000000
Si       2.71560816       2.69641854       0.03238883       0.00000000
Si      -2.70421330      -2.71044423       0.00745841       0.00000000
Si      -0.00043983       2.70860346      -2.72311336       0.00000000
Si       2.71469592      -0.00760743      -2.72207747       0.00000000
Si      -2.71502824      -0.00693954      -2.72446002       0.00000000
