10
Lattice="16.28999089631971 0.0 0.0 0.0 16.28999089631971 0.0 0.0 0.0 34.529650657227435" Properties=species:S:1:pos:R:3:initial_magmoms:R:1 pbc="T T T"
Si       0.56703861       2.24860644      -0.18414673       0.00000000
Si      -1.96726185      -0.41171346      -1.24897269       0.00000000
Si       1.50934995      -1.58834016      -0.94210752       0.00000000
Si       0.01524744       0.12875616       2.43282243       0.00000000
Si       3.06504495      -1.44651942       0.82556988       0.00000000
Si       1.92981114      -1.42648272       2.85560371       0.00000000
Si       0.02489112      -3.42067194      -1.52413963       0.00000000
Si       1.05924096       2.69705385      -2.42436266       0.00000000
Si      -1.29231828       3.56358411       0.58638286       0.00000000
Si      -3.83575743       0.47032488      -0.14046670       0.00000000
