10
Lattice="16.28999089631971 0.0 0.0 0.0 16.28999089631971 0.0 0.0 0.0 34.529650657227435" Properties=species:S:1:pos:R:3:initial_magmoms:R:1 pbc="T T T"
Si      -1.35718506      -1.35721764      -1.35777568       0.00000000
Si       1.35843939       1.35896067      -1.35691244       0.00000000
Si      -1.35365013       1.35943308       1.36240266       0.00000000
Si       1.36334268      -1.35622395       1.36129771       0.00000000
Si      -2.71388468       0.00092853      -2.71461906       0.00000000
Si       0.00118917      -2.71394658      -2.71472265       0.00000000
Si      -2.71458841      -2.71554300      -0.00134666       0.00000000
Si       0.00099369       2.71586880      -2.71468812       0.00000000
Si       2.71464705       2.71643895       0.00041436       0.00000000
Si      -2.71578572       2.71534752      -0.00072512       0.00000000
