10
Lattice="16.28999089631971 0.0 0.0 0.0 16.28999089631971 0.0 0.0 0.0 34.529650657227435" Properties=species:S:1:pos:R:3:initial_magmoms:R:1 pbc="T T T"
Si      -0.92219319      -1.70191404      -1.25981501       0.00000000
Si       1.81364715      -1.40045130       0.55226754       0.00000000
Si      -1.38891798      -0.38415078       1.87399425       0.00000000
Si       1.39066101       1.96229340      -0.02430889       0.00000000
Si       2.44602495       1.05259464      -1.94519443       0.00000000
Si       0.38718072      -0.12598686       3.44944497       0.00000000
Si       2.53320903      -0.11261277       2.44742848       0.00000000
Si      -0.20206116       3.52006767      -0.63147860       0.00000000
Si      -2.37037419       1.73361438       2.09239441       0.00000000
Si      -3.20917887      -0.96993918      -1.43560556       0.00000000
