10
Lattice="16.28999089631971 0.0 0.0 0.0 16.28999089631971 0.0 0.0 0.0 34.529650657227435" Properties=species:S:1:pos:R:3:initial_magmoms:R:1 pbc="T T T"
Si       0.07299549      -0.39355011       2.27312270       0.00000000
Si      -2.15212077       0.85874364      -0.30572570       0.00000000
Si       0.13789485      -2.13543981      -0.96869536       0.00000000
Si       1.91208762       1.20260096      -0.67899143       0.00000000
Si      -2.61966006      -0.27583857      -2.32574592       0.00000000
Si       0.04311963       1.75711338       3.12645444       0.00000000
Si      -1.98185769      -1.40173821       2.74099973       0.00000000
Si       2.28392316      -2.12206572      -1.97071185       0.00000000
Si       2.62464480       0.09614358      -2.60643761       0.00000000
Si      -3.52126269      -0.33925554       1.25698358       0.00000000
