10
Lattice="16.28999089631971 0.0 0.0 0.0 16.28999089631971 0.0 0.0 0.0 34.529650657227435" Properties=species:S:1:pos:R:3:initial_magmoms:R:1 pbc="T T T"
Si       1.35467640      -1.35300656      -1.35408101       0.00000000
Si      -1.35801585      -1.35569441       1.35698150       0.00000000
Si       1.35654975       1.35866986       1.35711962       0.00000000
Si      -1.35843939       1.35827238      -1.36361120       0.00000000
Si       2.68855047      -0.00243169      -2.72919749       0.00000000
Si       2.71243161      -2.71198352      -0.00051795       0.00000000
Si       2.71140534       2.71601456      -0.00093230       0.00000000
Si      -0.00048870      -2.71359623       2.71406659       0.00000000
Si       2.71383255       0.00146201       2.71399753       0.00000000
Si      -2.71643895      -2.71253738      -0.00075965       0.00000000
