10
Lattice="16.28999089631971 0.0 0.0 0.0 16.28999089631971 0.0 0.0 0.0 34.529650657227435" Properties=species:S:1:pos:R:3:initial_magmoms:R:1 pbc="T T T"
Si      -1.38280923      -1.35539968       1.33667805       0.00000000
Si       1.35728280      -1.36101484      -1.35832816       0.00000000
Si      -1.35922131       1.35733167      -1.36105600       0.00000000
Si       1.36935369       1.36013355       1.35466801       0.00000000
Si       2.62500318      -0.09164754       2.69787217       0.00000000
Si      -0.03930777       2.64743451       2.72017834       0.00000000
Si      -2.70909216       2.70682785      -0.00662970       0.00000000
Si       2.71464705       2.71345788       0.00158836       0.00000000
Si      -0.08358399      -2.73238774       2.69476450       0.00000000
Si       0.00006516       2.71244790      -2.71638008       0.00000000
