10
Lattice="16.28999089631971 0.0 0.0 0.0 16.28999089631971 0.0 0.0 0.0 34.529650657227435" Properties=species:S:1:pos:R:3:initial_magmoms:R:1 pbc="T T T"
Si      -1.63771515       0.93141333      -1.46208981       0.00000000
Si      -0.35935740       1.05567345       2.16501031       0.00000000
Si       2.21830704       0.38418336      -0.93157597       0.00000000
Si      -0.88474248      -2.34696709       0.18449203       0.00000000
Si      -2.27970405      -0.93392199      -2.77314685       0.00000000
Si      -2.26108458       0.02681334       3.01502719       0.00000000
Si      -3.63249081       1.07722512      -0.18021035       0.00000000
Si      -0.38828844      -3.12346808       2.32864641       0.00000000
Si      -1.15945704       3.25288494       2.05810645       0.00000000
Si       2.82263346      -1.15064415      -2.65212036       0.00000000
