10
Lattice="16.28999089631971 0.0 0.0 0.0 16.28999089631971 0.0 0.0 0.0 34.529650657227435" Properties=species:S:1:pos:R:3:initial_magmoms:R:1 pbc="T T T"
Si       1.35604476       1.34542368       1.36951577       0.00000000
Si      -1.36257705       1.35174420      -1.35877704       0.00000000
Si       1.35334062      -1.36234899      -1.35995105       0.00000000
Si      -1.36801791      -1.38336309       1.34127050       0.00000000
Si       2.71352304       2.71013472      -0.00265878       0.00000000
Si      -2.71437012       2.71173114       0.00148478       0.00000000
Si       2.71094922      -0.00329058      -2.71682896       0.00000000
Si      -0.00340461       2.71103067      -2.71682896       0.00000000
Si       2.71026504      -2.71870326       0.00010359       0.00000000
Si      -2.71902906      -0.00384444      -2.71710520       0.00000000
