10
Lattice="16.28999089631971 0.0 0.0 0.0 16.28999089631971 0.0 0.0 0.0 34.529650657227435" Properties=species:S:1:pos:R:3:initial_magmoms:R:1 pbc="T T T"
Si      -1.42206813       0.70227819       1.77113036       0.00000000
Si       0.16786845       2.27069568      -0.87871104       0.00000000
Si       0.08107533      -1.00349658      -2.33931608       0.00000000
Si       1.27523007      -1.72579518       1.65725151       0.00000000
Si      -3.23864748       0.47649879       0.13345717       0.00000000
Si       2.13460902       0.05576067      -2.98840482       0.00000000
Si       2.40836247      -2.93405706      -0.35503407       0.00000000
Si       1.30310226       2.25065898      -2.90874487       0.00000000
Si      -0.10834479       2.13742719       3.33413456       0.00000000
Si       1.83448206       3.51837936       0.12095743       0.00000000
