10
Lattice="16.28999089631971 0.0 0.0 0.0 16.28999089631971 0.0 0.0 0.0 34.529650657227435" Properties=species:S:1:pos:R:3:initial_magmoms:R:1 pbc="T T T"
Si      -1.85378571      -0.83637747      -1.23526441       0.00000000
Si       0.79097724       1.86290811      -1.32628462       0.00000000
Si      -0.24187392       0.40702194       2.38530960       0.00000000
Si       1.78344549      -1.66169403      -0.10642044       0.00000000
Si      -0.99836523       2.62099584       1.80086041       0.00000000
Si      -0.49893012      -2.06140176      -2.73657993       0.00000000
Si       2.21425083       0.65754585      -2.75298153       0.00000000
Si       0.78187113      -3.43663614      -1.24016763       0.00000000
Si       3.54059892      -0.67186476      -1.31419924       0.00000000
Si       2.66484852       2.83291245      -0.03957100       0.00000000
