10
Lattice="16.28999089631971 0.0 0.0 0.0 16.28999089631971 0.0 0.0 0.0 34.529650657227435" Properties=species:S:1:pos:R:3:initial_magmoms:R:1 pbc="T T T"
Si       0.39838824      -2.07824562      -0.97076714       0.00000000
Si       1.77935670       1.47545046      -0.48724817       0.00000000
Si      -0.42059151      -0.83494395       2.21728823       0.00000000
Si      -1.73333745       0.78444495      -2.30005585       0.00000000
Si      -3.12220656       0.54537291      -0.38704307       0.00000000
Si      -2.40264468       1.83321144       1.50811786       0.00000000
Si       1.74671154      -1.60249617       2.43561933       0.00000000
Si       1.89314235      -3.05733978       0.62067082       0.00000000
Si      -0.99575883       1.14942240       3.33484099       0.00000000
Si      -1.81767078      -3.03826419      -1.06316854       0.00000000
