10
Lattice="16.28999089631971 0.0 0.0 0.0 16.28999089631971 0.0 0.0 0.0 34.529650657227435" Properties=species:S:1:pos:R:3:initial_magmoms:R:1 pbc="T T T"
Si      -0.41479227      -2.22917247       0.53976780       0.00000000
Si      -1.81364715       1.40045130      -0.55226754       0.00000000
Si       1.38886911       0.23907204      -1.91301277       0.00000000
Si       0.71956188       1.28783853       1.89516094       0.00000000
Si       3.12220656      -0.54537291       0.38704307       0.00000000
Si      -2.73584034      -0.30146274      -1.81208255       0.00000000
Si      -0.42298614       3.36274470      -0.57657643       0.00000000
Si      -2.54505186      -2.30319423      -0.49646759       0.00000000
Si      -1.42646643       1.27446444       2.89717743       0.00000000
Si       0.63237780       2.45304594      -2.49746197       0.00000000
