10
Lattice="16.28999089631971 0.0 0.0 0.0 16.28999089631971 0.0 0.0 0.0 34.529650657227435" Properties=species:S:1:pos:R:3:initial_magmoms:R:1 pbc="T T T"
Si       1.19664711       0.67038237      -1.87900105       0.00000000
Si      -2.03431149      -0.40523004      -1.15919555       0.00000000
Si      -0.53644599       1.92593412       1.36606280       0.00000000
Si       1.18988676      -1.97426655       0.86645301       0.00000000
Si      -0.08633700      -2.35945989       2.84831794       0.00000000
Si       1.77181443      -1.31398398      -2.99655382       0.00000000
Si       3.03986061       1.92673233      -1.02953664       0.00000000
Si      -2.35626705       1.34079732      -2.70370769       0.00000000
Si      -3.83293926      -0.14423166       0.41732559       0.00000000
Si      -1.69253100      -2.28133305      -2.65944065       0.00000000
