10
Lattice="16.28999089631971 0.0 0.0 0.0 16.28999089631971 0.0 0.0 0.0 34.529650657227435" Properties=species:S:1:pos:R:3:initial_magmoms:R:1 pbc="T T T"
Si       1.34827443       1.34674317       1.37593138       0.00000000
Si      -1.36503684      -1.37008674       1.36481283       0.00000000
Si       1.31804019      -1.34257293      -1.44093349       0.00000000
Si      -1.30922730       1.31541750      -1.50863236       0.00000000
Si      -0.44641116      -2.40365466      -2.61177935       0.00000000
Si      -2.22065280      -0.65127420      -2.82565409       0.00000000
Si       2.68214850       2.69731804       0.00081490       0.00000000
Si      -2.71823085       2.69612858      -0.02151198       0.00000000
Si       2.69268813      -2.73530277      -0.01301078       0.00000000
Si      -0.00640197       2.69974973       2.73001239       0.00000000
