10
Lattice="16.28999089631971 0.0 0.0 0.0 16.28999089631971 0.0 0.0 0.0 34.529650657227435" Properties=species:S:1:pos:R:3:initial_magmoms:R:1 pbc="T T T"
Si       1.34930070       1.32881995       1.36440538       0.00000000
Si       1.35161388      -1.35594702      -1.35784474       0.00000000
Si      -1.36327752       1.35800512      -1.35732680       0.00000000
Si      -1.36347300      -1.35630540       1.37832084       0.00000000
Si      -0.09555714       2.62737242       2.69887353       0.00000000
Si       2.70471015      -2.71055826       0.00124307       0.00000000
Si       2.70980892       0.00221938      -2.71468812       0.00000000
Si      -0.00451233      -2.71283886      -2.71461906       0.00000000
Si       2.71386513       2.71703258       0.00414356       0.00000000
Si      -0.00521280       2.71766789      -2.71489530       0.00000000
