10
Lattice="16.28999089631971 0.0 0.0 0.0 16.28999089631971 0.0 0.0 0.0 34.529650657227435" Properties=species:S:1:pos:R:3:initial_magmoms:R:1 pbc="T T T"
Si      -1.05536394       0.90969876       1.92088554       0.00000000
Si       0.75649131      -2.21397390       0.58444919       0.00000000
Si       2.31964713       1.05192675      -0.00828712       0.00000000
Si      -1.92964824       0.54073026      -1.66446821       0.00000000
Si       1.02307716       3.10082172       0.16646754       0.00000000
Si      -2.44602495      -1.05259464       1.94519443       0.00000000
Si       0.99836523      -2.62099584      -1.80086041       0.00000000
Si      -0.63237780      -2.45304594       2.49746197       0.00000000
Si       1.78934247      -0.75808773      -3.12714503       0.00000000
Si      -2.64808611       2.46747303       1.31371582       0.00000000
