10
Lattice="16.28999089631971 0.0 0.0 0.0 16.28999089631971 0.0 0.0 0.0 34.529650657227435" Properties=species:S:1:pos:R:3:initial_magmoms:R:1 pbc="T T T"
Si       1.35760222      -1.35407367      -1.35635997       0.00000000
Si      -1.35782416      -1.35524655       1.35729227       0.00000000
Si       1.35711027       1.36011726       1.35701603       0.00000000
Si      -1.35586936       1.36028016      -1.36274795       0.00000000
Si       2.71365676      -2.71178001       0.00110495       0.00000000
Si      -0.00045841      -2.71248048       2.71503342       0.00000000
Si       2.71481335       0.00270414       2.71465359       0.00000000
Si      -2.71497664       0.00161271       2.71479171       0.00000000
Si      -2.71772965      -2.71331127      -0.00041436       0.00000000
Si       2.71421062       2.71764441       0.00003453       0.00000000
