10
Lattice="16.28999089631971 0.0 0.0 0.0 16.28999089631971 0.0 0.0 0.0 34.529650657227435" Properties=species:S:1:pos:R:3:initial_magmoms:R:1 pbc="T T T"
Si       1.80085950      -1.09636587       1.04814813       0.00000000
Si       0.50371938       2.29685742       0.14302189       0.00000000
Si      -1.54342863      -0.66749904      -1.70666347       0.00000000
Si      -1.53375237      -0.58930704       1.77883048       0.00000000
Si       2.30213538       0.97461441       2.49777274       0.00000000
Si       2.43279747      -2.44851732      -0.85136354       0.00000000
Si      -3.40278552       0.64747863      -0.93613388       0.00000000
Si      -2.09521980      -2.78734932       0.91030569       0.00000000
Si       0.00726534       3.07335841      -2.00113249       0.00000000
Si      -3.52978236       0.54016011       1.39261612       0.00000000
