10
Lattice="16.28999089631971 0.0 0.0 0.0 16.28999089631971 0.0 0.0 0.0 34.529650657227435" Properties=species:S:1:pos:R:3:initial_magmoms:R:1 pbc="T T T"
Si       2.09005587      -0.98523549      -0.23749507       0.00000000
Si      -0.33041007       1.32850719      -1.91042305       0.00000000
Si      -1.53764568      -1.77986169      -0.13722091       0.00000000
Si      -0.47915406       1.51254835       1.80852599       0.00000000
Si      -3.42236610      -0.62310879      -0.96517333       0.00000000
Si      -1.87411563       2.92559345      -1.14911289       0.00000000
Si      -2.02984803      -2.22830910       2.10299502       0.00000000
Si       2.03866092      -1.77906348      -2.53282035       0.00000000
Si      -2.86531326       1.15199852       2.09056434       0.00000000
Si      -3.45224196       1.52755470      -0.11184160       0.00000000
