10
Lattice="16.28999089631971 0.0 0.0 0.0 16.28999089631971 0.0 0.0 0.0 34.529650657227435" Properties=species:S:1:pos:R:3:initial_magmoms:R:1 pbc="T T T"
Si       1.35312885      -1.35827812      -1.36050353       0.00000000
Si       1.34434854       1.37173203       1.36426726       0.00000000
Si      -1.36296801       1.35788553      -1.36229907       0.00000000
Si      -1.36456443      -1.38821262       1.36026182       0.00000000
Si       2.50180191      -0.14289588       2.67674001       0.00000000
Si       2.71461679       2.71145421      -0.00224443       0.00000000
Si       2.71078782       0.00057015      -2.71831374       0.00000000
Si       2.71296918      -2.71614895      -0.00438527       0.00000000
Si      -2.71386513      -2.71703258      -0.00414356       0.00000000
Si      -0.00373041       2.71466334      -2.71855545       0.00000000
