10
Lattice="16.28999089631971 0.0 0.0 0.0 16.28999089631971 0.0 0.0 0.0 34.529650657227435" Properties=species:S:1:pos:R:3:initial_magmoms:R:1 pbc="T T T"
Si       1.17403659      -0.03341079       2.02053817       0.00000000
Si      -0.54514485      -1.96414136      -1.24006404       0.00000000
Si       1.98886239       0.66184641      -1.38049620       0.00000000
Si      -1.81376118       1.85888448       0.05213980       0.00000000
Si       3.07925376       0.90282438       0.69031716       0.00000000
Si      -1.87750395      -0.58347033      -2.69697440       0.00000000
Si       0.83140902       2.17647432      -2.69296896       0.00000000
Si      -3.32236179       0.71508213      -1.36250625       0.00000000
Si      -0.56381319       3.43054368      -1.20995416       0.00000000
Si       0.59222295       1.66847067       3.53960194       0.00000000
