10
Lattice="16.28999089631971 0.0 0.0 0.0 16.28999089631971 0.0 0.0 0.0 34.529650657227435" Properties=species:S:1:pos:R:3:initial_magmoms:R:1 pbc="T T T"
Si       0.74533266      -0.09133803       2.34984763       0.00000000
Si       2.51030529       0.10801899      -0.27765308       0.00000000
Si      -1.48727700       2.05003134      -0.02762374       0.00000000
Si      -0.71531019      -2.09744453      -1.25463556       0.00000000
Si       2.61024444      -0.79509861      -2.49832521       0.00000000
Si      -1.15738821      -0.91127889       3.61056183       0.00000000
Si       0.87649974      -2.31357815      -3.08301611       0.00000000
Si      -1.24497954      -3.71800421       0.61338506       0.00000000
Si      -3.01446450       1.78338033      -1.90500189       0.00000000
Si      -0.28035090       3.82899708      -1.15895384       0.00000000
