10
Lattice="16.28999089631971 0.0 0.0 0.0 16.28999089631971 0.0 0.0 0.0 34.529650657227435" Properties=species:S:1:pos:R:3:initial_magmoms:R:1 pbc="T T T"
Si       1.35580041       1.33419987      -1.40024718       0.00000000
Si      -1.36901160      -1.36925595      -1.38705684       0.00000000
Si       1.36275624      -1.42467453       1.38857615       0.00000000
Si      -0.86483610       2.00277405       1.31903339       0.00000000
Si       2.70125667       2.67617007      -0.05086220       0.00000000
Si       2.68208334      -2.72802766      -0.05693943       0.00000000
Si      -2.71221169       2.70844056      -0.02137387       0.00000000
Si      -0.00764001       2.69664660      -2.75135863       0.00000000
Si       2.70567126      -0.01529631      -2.75467348       0.00000000
Si      -2.72239620      -0.01668096      -2.75180752       0.00000000
