10
Lattice="16.28999089631971 0.0 0.0 0.0 16.28999089631971 0.0 0.0 0.0 34.529650657227435" Properties=species:S:1:pos:R:3:initial_magmoms:R:1 pbc="T T T"
Si       0.53014176      -2.25372150      -0.01388093       0.00000000
Si       1.54657164       1.49884290      -0.96627828       0.00000000
Si       0.12323385       0.88106094       2.18918108       0.00000000
Si      -2.36934792      -0.42296985      -0.13801509       0.00000000
Si      -0.68667237      -2.70945054       2.04298245       0.00000000
Si      -1.72351458       2.28172401       2.05510237       0.00000000
Si       0.37768365       2.02839822      -2.91851676       0.00000000
Si       2.50110863       2.44027458       1.03057253       0.00000000
Si      -0.61129854      -0.83963547       3.59664495       0.00000000
Si       2.80750724      -2.52205038      -0.13411324       0.00000000
