10
Lattice="16.28999089631971 0.0 0.0 0.0 16.28999089631971 0.0 0.0 0.0 34.529650657227435" Properties=species:S:1:pos:R:3:initial_magmoms:R:1 pbc="T T T"
Si      -0.98862381      -1.68305022       1.42136004       0.00000000
Si       1.73872197       1.00409931       1.43817599       0.00000000
Si      -1.81273491       1.72845045       0.22977117       0.00000000
Si       0.70233262      -1.07303859      -2.51842148       0.00000000
Si       2.19303215       2.37087918      -1.40597910       0.00000000
Si      -2.14865100       2.04398775      -1.99643646       0.00000000
Si      -2.30523048      -0.28370664       2.86394404       0.00000000
Si       0.43552223       2.45081421       2.86170307       0.00000000
Si      -1.74806361      -3.58748154       0.05017161       0.00000000
Si      -1.02843657       3.67940601       1.43539980       0.00000000
