10
Lattice="16.28999089631971 0.0 0.0 0.0 16.28999089631971 0.0 0.0 0.0 34.529650657227435" Properties=species:S:1:pos:R:3:initial_magmoms:R:1 pbc="T T T"
Si       0.62509617       1.71113418       1.46219340       0.00000000
Si       1.99855494      -0.91575864      -1.02618726       0.00000000
Si      -1.20692610      -1.77896574       1.13133011       0.00000000
Si      -1.48067955       1.21085199      -1.50204064       0.00000000
Si      -2.73411360      -2.04561675      -0.74604805       0.00000000
Si       0.88633890       2.20560084      -2.56772985       0.00000000
Si      -3.53421324       0.15159474      -0.85295191       0.00000000
Si       2.73308733       0.80493777      -2.43365114       0.00000000
Si       3.47607979      -1.40589216       0.94020838       0.00000000
Si      -2.34005850      -0.57070386       3.14361568       0.00000000
