10
Lattice="16.28999089631971 0.0 0.0 0.0 16.28999089631971 0.0 0.0 0.0 34.529650657227435" Properties=species:S:1:pos:R:3:initial_magmoms:R:1 pbc="T T T"
Si       1.54945497      -0.61480089      -1.56925890       0.00000000
Si       1.54384958       1.34254035       1.21697267       0.00000000
Si      -1.31574330      -1.58490297       1.19625832       0.00000000
Si      -1.39823586       0.97767693      -1.75461417       0.00000000
Si      -2.60519454       2.56139073      -0.41227325       0.00000000
Si      -2.58538590      -0.11199375       2.61400513       0.00000000
Si       0.14540454       2.61245988       2.63232657       0.00000000
Si      -2.63319705      -0.94222989      -2.58712451       0.00000000
Si       1.90572542      -2.89342980      -1.64512059       0.00000000
Si       0.14821550      -2.81349477       2.62256158       0.00000000
