10
Lattice="16.28999089631971 0.0 0.0 0.0 16.28999089631971 0.0 0.0 0.0 34.529650657227435" Properties=species:S:1:pos:R:3:initial_magmoms:R:1 pbc="T T T"
Si       1.31574330       1.58490297      -1.19625832       0.00000000
Si       1.46395880      -1.22859180       1.42630326       0.00000000
Si      -1.26964260       1.47290922       1.41774681       0.00000000
Si      -0.78429834      -1.95095556      -1.20562863       0.00000000
Si       0.10453293      -2.59242318       2.79750408       0.00000000
Si      -2.70172908      -2.71425609      -0.04624559       0.00000000
Si      -2.61281826       0.12663846       2.79840185       0.00000000
Si       2.76715854      -2.67530670       0.00277619       0.00000000
Si      -2.64429054       2.86563906      -0.01017589       0.00000000
Si      -0.08249256       2.56257990      -2.95087249       0.00000000
