10
Lattice="16.28999089631971 0.0 0.0 0.0 16.28999089631971 0.0 0.0 0.0 34.529650657227435" Properties=species:S:1:pos:R:3:initial_magmoms:R:1 pbc="T T T"
Si      -1.35280305       1.35550719       1.35753397       0.00000000
Si      -1.35537687      -1.35791811      -1.35663620       0.00000000
Si       1.35930276       1.35721764      -1.35705056       0.00000000
Si       1.35853713      -1.35607734       1.36516503       0.00000000
Si       0.00289962       2.70974376       2.71330694       0.00000000
Si      -2.71191033       2.71314837       0.00027624       0.00000000
Si      -2.71329498      -0.00063531      -2.71406659       0.00000000
Si       2.71643895       2.71204065       0.00082871       0.00000000
Si       0.00237834       2.71432125      -2.71430830       0.00000000
Si      -2.71298547      -2.71697652       0.00024171       0.00000000
