10
Lattice="16.28999089631971 0.0 0.0 0.0 16.28999089631971 0.0 0.0 0.0 34.529650657227435" Properties=species:S:1:pos:R:3:initial_magmoms:R:1 pbc="T T T"
Si      -1.75715343      -0.98982927       1.20777880       0.00000000
Si       0.81391356       1.67060466       1.45186903       0.00000000
Si      -1.32634809       1.32941061      -1.43878229       0.00000000
Si       1.39331628      -1.38857589      -1.40117948       0.00000000
Si      -0.46555191      -1.41240816       3.08729779       0.00000000
Si       2.58263289       2.54988999       0.01046249       0.00000000
Si      -2.74962168       2.53477287      -0.01208538       0.00000000
Si       0.89650386       0.48487185       3.61411697       0.00000000
Si      -0.87575040       3.50477721       1.27462824       0.00000000
Si      -3.54059892       0.67186476       1.31419924       0.00000000
