10
Lattice="16.28999089631971 0.0 0.0 0.0 16.28999089631971 0.0 0.0 0.0 34.529650657227435" Properties=species:S:1:pos:R:3:initial_magmoms:R:1 pbc="T T T"
Si      -1.36205577      -1.89728001      -0.52681917       0.00000000
Si      -0.08259030       1.18573281      -2.16224793       0.00000000
Si       2.03801651      -1.48126599       0.47412690       0.00000000
Si      -1.16628255       1.28502036       1.89819955       0.00000000
Si      -2.54725101      -2.26867572       1.41468058       0.00000000
Si      -0.89650386      -0.48487185      -3.61411697       0.00000000
Si      -2.94563925      -0.19043010       2.38544772       0.00000000
Si      -2.65365729      -1.47470112      -2.40633817       0.00000000
Si       0.50969781       1.67018112       3.46947218       0.00000000
Si       2.47833358       2.02473297       2.22029231       0.00000000
