10
Lattice="16.28999089631971 0.0 0.0 0.0 16.28999089631971 0.0 0.0 0.0 34.529650657227435" Properties=species:S:1:pos:R:3:initial_magmoms:R:1 pbc="T T T"
Si       0.19723932      -2.27809134       0.35154657       0.00000000
Si      -2.20866336       0.68424516       0.49667477       0.00000000
Si       0.65777391       0.08534331      -2.31597402       0.00000000
Si       1.23496119       1.91990682       0.83251034       0.00000000
Si      -1.26182340       1.33063236      -2.68744421       0.00000000
Si      -1.89376137       2.68278381      -0.78793254       0.00000000
Si       0.53315541      -2.59362864       2.57775419       0.00000000
Si      -2.74004316      -0.58347522      -2.53302753       0.00000000
Si       2.63319705       0.94222989       2.58712451       0.00000000
Si       2.33489457       2.74496274      -1.24869645       0.00000000
