10
Lattice="16.28999089631971 0.0 0.0 0.0 16.28999089631971 0.0 0.0 0.0 34.529650657227435" Properties=species:S:1:pos:R:3:initial_magmoms:R:1 pbc="T T T"
Si       1.35497891      -1.35327950      -1.35819004       0.00000000
Si       1.35678384       1.35797175       1.35684338       0.00000000
Si      -1.35820434      -1.35699362       1.35708509       0.00000000
Si      -1.35598890       1.35644538      -1.36409461       0.00000000
Si       2.71190822      -2.71549817      -0.00041436       0.00000000
Si       2.71381415       0.00054838       2.71455000       0.00000000
Si      -0.00079888      -2.71440674       2.71437736       0.00000000
Si       2.71301594       2.71658871       0.00082871       0.00000000
Si      -2.71594326       0.00050489       2.71423924       0.00000000
Si      -2.71734420      -2.71294064      -0.00027624       0.00000000
