10
Lattice="16.28999089631971 0.0 0.0 0.0 16.28999089631971 0.0 0.0 0.0 34.529650657227435" Properties=species:S:1:pos:R:3:initial_magmoms:R:1 pbc="T T T"
Si       1.35294068      -1.35661491       1.36136677       0.00000000
Si       1.35433431       1.36259334      -1.36388743       0.00000000
Si      -1.36311462       1.36120869       1.36029635       0.00000000
Si      -1.37645613      -1.36186029      -1.38220888       0.00000000
Si      -0.16599510       2.58613524      -2.73290943       0.00000000
Si       2.70987312      -2.71081890       0.00127760       0.00000000
Si      -2.71963179      -2.70813105      -0.00155384       0.00000000
Si       2.71069251       0.00250866       2.71755408       0.00000000
Si      -0.00389331      -2.71244790       2.71748503       0.00000000
Si       2.70920849       2.72086983       0.00238255       0.00000000
