10
Lattice="16.28999089631971 0.0 0.0 0.0 16.28999089631971 0.0 0.0 0.0 34.529650657227435" Properties=species:S:1:pos:R:3:initial_magmoms:R:1 pbc="T T T"
Si      -0.95213421      -1.38046347       1.67085620       0.00000000
Si      -0.80845641       1.64362842      -1.52493381       0.00000000
Si       1.20992346      -1.42485372      -1.47956183       0.00000000
Si       1.60840944       1.17972180       1.31364676       0.00000000
Si       0.96746310      -2.62575252       2.04232639       0.00000000
Si       3.41351804      -1.13052600      -0.56393857       0.00000000
Si       0.80309700       3.38362848      -1.09231158       0.00000000
Si       3.55078410       1.15724160      -0.03342472       0.00000000
Si      -0.24816186      -3.36776202      -1.70952943       0.00000000
Si       1.18037340      -0.38517705      -3.60783257       0.00000000
