10
Lattice="16.28999089631971 0.0 0.0 0.0 16.28999089631971 0.0 0.0 0.0 34.529650657227435" Properties=species:S:1:pos:R:3:initial_magmoms:R:1 pbc="T T T"
Si       0.55130247       1.40647860       1.78449334       0.00000000
Si       0.34971372      -2.03235669       1.10488038       0.00000000
Si       1.70245161      -0.00838935      -1.66567675       0.00000000
Si      -2.25055847       0.70542216      -0.53337981       0.00000000
Si      -1.66019861       1.26947970      -2.78198645       0.00000000
Si       0.69747264       1.76909400      -2.94738357       0.00000000
Si      -1.44882446       2.33386830       2.60567795       0.00000000
Si       1.18648215       0.13471830       3.61346090       0.00000000
Si       2.26108458      -2.29692258      -2.07105507       0.00000000
Si      -0.18788886      -1.68702498       3.43784300       0.00000000
