10
Lattice="16.28999089631971 0.0 0.0 0.0 16.28999089631971 0.0 0.0 0.0 34.529650657227435" Properties=species:S:1:pos:R:3:initial_magmoms:R:1 pbc="T T T"
Si       1.31282739       1.83312999      -0.75785720       0.00000000
Si      -2.17834930       0.27528471       1.03105594       0.00000000
Si       0.67463406      -2.33054514       0.07941824       0.00000000
Si      -0.72135378      -3.01298537       1.84554180       0.00000000
Si      -2.86377290      -2.03980122       0.97214833       0.00000000
Si       0.26407719       3.76528689       0.05086220       0.00000000
Si       3.02648652      -2.21524452       0.47844311       0.00000000
Si      -3.65587415       0.76541823      -0.93533970       0.00000000
Si       3.53882331       1.66845438      -0.02282411       0.00000000
Si      -0.39703617      -3.54363375      -1.71501965       0.00000000
