10
Lattice="16.28999089631971 0.0 0.0 0.0 16.28999089631971 0.0 0.0 0.0 34.529650657227435" Properties=species:S:1:pos:R:3:initial_magmoms:R:1 pbc="T T T"
Si      -1.35703030       1.35742338      -1.35770662       0.00000000
Si       1.35752715      -1.35724878      -1.35763756       0.00000000
Si       1.35951453       1.35578623       1.35749944       0.00000000
Si      -1.35925226      -1.35777006       1.35632544       0.00000000
Si       2.71412577       0.00079965       2.71258181       0.00000000
Si      -2.71273202      -0.00137924       2.71413565       0.00000000
Si      -2.71381415      -0.00054838      -2.71455000       0.00000000
Si       2.71497285      -2.71415691       0.00013812       0.00000000
Si      -2.71461302      -2.71495512      -0.00017265       0.00000000
Si      -0.00079821       2.71604033      -2.71372129       0.00000000
