10
Lattice="16.28999089631971 0.0 0.0 0.0 16.28999089631971 0.0 0.0 0.0 34.529650657227435" Properties=species:S:1:pos:R:3:initial_magmoms:R:1 pbc="T T T"
Si      -1.35693245       1.35420399       1.36008917       0.00000000
Si       1.35792626      -1.35900954       1.35905328       0.00000000
Si      -1.35272786      -1.35254241      -1.37493002       0.00000000
Si       1.35988106       1.34444628      -1.38555135       0.00000000
Si      -2.70987312       2.71081890      -0.00127760       0.00000000
Si      -2.71215372      -2.71637379      -0.00372920       0.00000000
Si       2.71660999       2.71208952      -0.00403997       0.00000000
Si       0.00081939       2.71332756       2.71627649       0.00000000
Si      -2.71376643      -0.00162900       2.71620743       0.00000000
Si       2.71543712      -2.71544526      -0.00466151       0.00000000
