10
Lattice="16.28999089631971 0.0 0.0 0.0 16.28999089631971 0.0 0.0 0.0 34.529650657227435" Properties=species:S:1:pos:R:3:initial_magmoms:R:1 pbc="T T T"
Si       1.27829259      -0.75763161       1.81322203       0.00000000
Si       1.19581632      -0.11631060      -2.02084893       0.00000000
Si      -0.47167695       2.32823196       0.25261907       0.00000000
Si      -1.64829388      -1.44057357      -0.96662358       0.00000000
Si      -3.51431405      -0.03547962      -0.73534385       0.00000000
Si      -0.58008690       0.12671991      -3.64263847       0.00000000
Si       2.05640073      -2.29957785      -2.34145692       0.00000000
Si      -0.30936339       3.46362867      -1.81660594       0.00000000
Si       0.19109799      -0.56138598       3.90986359       0.00000000
Si       2.29936608      -2.88127746       1.61657556       0.00000000
