10
Lattice="16.28999089631971 0.0 0.0 0.0 16.28999089631971 0.0 0.0 0.0 34.529650657227435" Properties=species:S:1:pos:R:3:initial_magmoms:R:1 pbc="T T T"
Si      -1.39844504       1.26991953       1.41535391       0.00000000
Si      -1.54384958      -1.34254035      -1.21697267       0.00000000
Si       1.31697482      -1.45904643       1.39496759       0.00000000
Si       1.30088030       1.36487394      -1.50932437       0.00000000
Si       0.00560539      -1.95734124      -2.78623157       0.00000000
Si       1.52035547      -0.23664483      -3.43172922       0.00000000
Si       2.73552431       2.67527412      -0.07726704       0.00000000
Si      -0.04357086       2.62819602       2.78162389       0.00000000
Si      -2.91877445       2.49346143       0.04633191       0.00000000
Si       2.67370376      -0.09140319       2.77647897       0.00000000
