10
Lattice="16.28999089631971 0.0 0.0 0.0 16.28999089631971 0.0 0.0 0.0 34.529650657227435" Properties=species:S:1:pos:R:3:initial_magmoms:R:1 pbc="T T T"
Si       1.36158336       1.36564187       1.39655250       0.00000000
Si      -1.30699068       1.37904365      -1.44475592       0.00000000
Si       1.42951266      -1.32292719      -1.43166918       0.00000000
Si      -0.95651622      -1.77728787       1.37645623       0.00000000
Si       2.69840592      -0.29263356       2.44407910       0.00000000
Si      -1.76816873       2.84513714       1.93124444       0.00000000
Si      -2.64739283       0.03090610      -2.82069421       0.00000000
Si      -2.85856010       2.60415917      -0.13956893       0.00000000
Si       2.79306711       2.69699588      -0.03725751       0.00000000
Si       0.06822252      -2.68139916      -2.81537664       0.00000000
