10
Lattice="10.86 0.0 0.0 0.0 10.86 0.0 0.0 0.0 10.86" Properties=species:S:1:pos:R:3:initial_magmoms:R:1 pbc="T T T"
Si       1.47715548      -0.96960252       1.61771646       0.00000000
Si       1.13037396       1.70150136      -1.25651286       0.00000000
Si      -1.54377072      -1.24138488      -1.42764474       0.00000000
Si      -1.58054268       1.49154498       1.33702890       0.00000000
Si       0.14587152      -2.49175098       2.67921630       0.00000000
Si      -0.15637314      -2.50225260      -2.69809098       0.00000000
Si       2.55862686       0.21274740      -2.69809098       0.00000000
Si      -2.87137314      -2.50225260       0.01690902       0.00000000
Si       2.55862686       2.92774740       0.01690902       0.00000000
Si      -2.87137314       0.21274740      -2.69809098       0.00000000
