10
Lattice="16.28999089631971 0.0 0.0 0.0 16.28999089631971 0.0 0.0 0.0 34.56409401068381" Properties=species:S:1:pos:R:3:initial_magmoms:R:1 pbc="T T T"
Si       0.93991182       1.72793243      -1.32769197       0.00000000
Si      -1.38102940       1.29510713       1.44035227       0.00000000
Si      -1.48008889      -1.21808149      -1.45512985       0.00000000
Si       1.34921436      -1.40989678       1.42351264       0.00000000
Si       1.93609419       0.02195566      -2.89845810       0.00000000
Si      -2.69981893       2.66636675       0.02119471       0.00000000
Si      -2.67992884      -2.73553476       0.02312339       0.00000000
Si      -0.01664512       2.65905254       2.80660600       0.00000000
Si       2.76093834       2.72685152      -0.04099649       0.00000000
Si      -0.97082861       3.44726048      -1.50898074       0.00000000
