10
Lattice="16.28999089631971 0.0 0.0 0.0 16.28999089631971 0.0 0.0 0.0 34.56409401068381" Properties=species:S:1:pos:R:3:initial_magmoms:R:1 pbc="T T T"
Si      -1.21893183      -1.95121620       0.43727060       0.00000000
Si       2.07689355      -0.99957069      -0.48372477       0.00000000
Si      -0.82013634       0.85096258      -2.03969746       0.00000000
Si       0.03422529       1.69027225       1.74635183       0.00000000
Si       3.24570105       0.45198008       0.98770410       0.00000000
Si      -2.66974855       1.93308610      -1.02119673       0.00000000
Si      -1.67171238       3.04574849       0.83710826       0.00000000
Si      -1.06391619      -2.93521365      -1.78012096       0.00000000
Si       0.28224054      -3.05986473       1.89546141       0.00000000
Si      -3.23512884      -1.13288805       1.30455333       0.00000000
