10
Lattice="16.28999089631971 0.0 0.0 0.0 16.28999089631971 0.0 0.0 0.0 34.56409401068381" Properties=species:S:1:pos:R:3:initial_magmoms:R:1 pbc="T T T"
Si      -2.10996781      -0.93856464      -0.09308116       0.00000000
Si       1.57825828      -1.47683511       0.87789391       0.00000000
Si       0.25651863       0.96190821      -2.11687912       0.00000000
Si      -0.19623911       1.54913895       1.77860014       0.00000000
Si       2.26859590       2.08432572      -1.69692514       0.00000000
Si      -1.43567584       2.57678219      -2.09856014       0.00000000
Si       0.66578696      -1.90024479       3.01053427       0.00000000
Si      -1.73580280      -3.19710798       0.44660291       0.00000000
Si       3.42197677      -0.04531878       1.38591725       0.00000000
Si      -2.41123507       2.27673994       1.71417264       0.00000000
