10
Lattice="16.28999089631971 0.0 0.0 0.0 16.28999089631971 0.0 0.0 0.0 34.56409401068381" Properties=species:S:1:pos:R:3:initial_magmoms:R:1 pbc="T T T"
Si      -0.99196326       1.83630654      -1.01587385       0.00000000
Si      -1.82068443      -1.17223003       0.96575589       0.00000000
Si       1.60318035       1.01993319       1.43430701       0.00000000
Si       1.19757564      -1.34824511      -2.02435099       0.00000000
Si       1.36888128       2.53443078      -1.91395321       0.00000000
Si       2.92939812       1.88349867      -0.31926871       0.00000000
Si       2.13993585      -2.76112961       0.42085264       0.00000000
Si      -2.49922809       0.73274049      -2.43272599       0.00000000
Si       0.14213025      -3.38821316      -1.21807392       0.00000000
Si      -1.00054809      -2.02319261       3.00545335       0.00000000
