10
Lattice="16.28999089631971 0.0 0.0 0.0 16.28999089631971 0.0 0.0 0.0 34.56409401068381" Properties=species:S:1:pos:R:3:initial_magmoms:R:1 pbc="T T T"
Si       1.55056365      -1.14479441      -1.30607415       0.00000000
Si      -1.69992666      -1.64091939       0.19777586       0.00000000
Si      -0.42943698       2.13504885      -0.96043302       0.00000000
Si       1.86240312       0.54946170       1.51356252       0.00000000
Si       3.31058412       0.07162713      -0.30948707       0.00000000
Si      -3.37189968      -0.30988467      -0.70915191       0.00000000
Si      -1.99783818      -0.80362480       2.85561791       0.00000000
Si       1.97167644      -1.43207508       2.77694999       0.00000000
Si      -2.27178711       2.98906839       0.39261376       0.00000000
Si      -3.53532096       1.11591387       1.24786818       0.00000000
