10
Lattice="16.28999089631971 0.0 0.0 0.0 16.28999089631971 0.0 0.0 0.0 34.56409401068381" Properties=species:S:1:pos:R:3:initial_magmoms:R:1 pbc="T T T"
Si      -0.10927332       1.98153678      -1.26338747       0.00000000
Si       1.07012268      -1.78538630      -1.13252774       0.00000000
Si      -1.98487134      -0.54385142       1.32345990       0.00000000
Si       1.36546038       0.99625242       1.79338706       0.00000000
Si      -0.62625276       0.41661186       3.08699842       0.00000000
Si       1.33890768       1.50370221      -3.08643706       0.00000000
Si      -1.97167644       1.43207508      -2.77694999       0.00000000
Si       3.33726714      -0.57283459       1.51636222       0.00000000
Si       0.12854439      -1.89055454      -3.29240461       0.00000000
Si       3.49857072      -1.23893825      -1.09647737       0.00000000
