10
Lattice="16.28999089631971 0.0 0.0 0.0 16.28999089631971 0.0 0.0 0.0 34.56409401068381" Properties=species:S:1:pos:R:3:initial_magmoms:R:1 pbc="T T T"
Si      -1.36291914      -1.34763912       1.37716216       0.00000000
Si       1.35956340       1.35899325       1.38179375       0.00000000
Si      -1.23466797       1.45889982      -1.44300680       0.00000000
Si       1.18807857      -1.57543848      -1.41575645       0.00000000
Si       2.70977634       2.70046011       0.01208707       0.00000000
Si      -2.70925506       2.72232628      -0.00382279       0.00000000
Si       2.71191033      -2.72981304      -0.00541620       0.00000000
Si       2.84798070      -0.41498775      -2.55798150       0.00000000
Si      -2.72728809      -2.71928970       0.00375712       0.00000000
Si      -0.00312768      -2.70935280       2.73867715       0.00000000
