10
Lattice="16.28999089631971 0.0 0.0 0.0 16.28999089631971 0.0 0.0 0.0 34.56409401068381" Properties=species:S:1:pos:R:3:initial_magmoms:R:1 pbc="T T T"
Si      -2.07689355       0.99957069       0.48372477       0.00000000
Si       1.06359039       0.26163369      -2.10087594       0.00000000
Si       1.16880750       1.45155077       1.47142887       0.00000000
Si      -0.23087817      -2.33634438       0.65270872       0.00000000
Si       1.76544504      -0.29219373       2.87898326       0.00000000
Si      -3.29582538      -0.95164551       0.92099536       0.00000000
Si      -1.79465301      -2.06029404       2.37918618       0.00000000
Si       2.27858004       2.86298283       0.02073847       0.00000000
Si       2.38637097      -1.66410495      -2.24466265       0.00000000
Si      -2.89702989       1.85053327      -1.55597269       0.00000000
