10
Lattice="16.28999089631971 0.0 0.0 0.0 16.28999089631971 0.0 0.0 0.0 34.56409401068381" Properties=species:S:1:pos:R:3:initial_magmoms:R:1 pbc="T T T"
Si       2.02289220       0.75478086      -1.04024155       0.00000000
Si      -1.53720585      -1.01331945      -1.54003863       0.00000000
Si      -0.88014870       1.81232766       1.33289590       0.00000000
Si       1.15434198      -1.77036462       1.20348786       0.00000000
Si       0.02656899      -1.28936979      -3.26651609       0.00000000
Si       0.96598071       3.25791270       1.10847111       0.00000000
Si       2.92760622       2.07793611       0.59958367       0.00000000
Si       0.98973153      -3.58290405      -0.30692933       0.00000000
Si       1.42625466       2.49852536      -2.44779594       0.00000000
Si      -2.62793538      -2.78080074      -0.45365399       0.00000000
