10
Lattice="16.28999089631971 0.0 0.0 0.0 16.28999089631971 0.0 0.0 0.0 34.56409401068381" Properties=species:S:1:pos:R:3:initial_magmoms:R:1 pbc="T T T"
Si       1.84612941       1.44558504      -0.22442479       0.00000000
Si      -0.61506153      -0.75665421       2.16634037       0.00000000
Si       0.88014870      -1.81232766      -1.33289590       0.00000000
Si      -1.76844240       1.37299029      -0.91650203       0.00000000
Si       2.29680855       1.69566750       2.07173839       0.00000000
Si       1.36868580       2.43337481      -2.38264259       0.00000000
Si      -2.45878002      -2.18817054       1.65831703       0.00000000
Si      -0.90507240       1.92448987      -3.02204412       0.00000000
Si       3.80775492       0.26560845      -0.73331223       0.00000000
Si      -0.95368176       1.19954251       3.57558840       0.00000000
