10
Lattice="16.28999089631971 0.0 0.0 0.0 16.28999089631971 0.0 0.0 0.0 34.56409401068381" Properties=species:S:1:pos:R:3:initial_magmoms:R:1 pbc="T T T"
Si       1.09208160       1.63199736      -1.31553577       0.00000000
Si       1.44526509      -1.20438486       1.46512437       0.00000000
Si      -1.27974240       1.50096060       1.44947720       0.00000000
Si      -0.77069619      -2.11620132      -1.15582153       0.00000000
Si      -1.84702536       1.03838976      -3.09016104       0.00000000
Si       0.08366544      -2.55530967       2.83296805       0.00000000
Si       2.81572650      -2.57623092       0.07706069       0.00000000
Si       2.65118121       0.38955906      -2.74462360       0.00000000
Si      -2.47052511       2.93928615      -0.10123483       0.00000000
Si      -2.76240933      -2.69584187       0.13778984       0.00000000
