10
Lattice="16.28999089631971 0.0 0.0 0.0 16.28999089631971 0.0 0.0 0.0 34.56409401068381" Properties=species:S:1:pos:R:3:initial_magmoms:R:1 pbc="T T T"
Si      -0.38753910       0.55524465       2.20169945       0.00000000
Si      -0.23752449       1.58272011      -1.71299746       0.00000000
Si       0.66891627      -2.07201307      -1.00201365       0.00000000
Si       1.86181668       1.31470074       1.40682854       0.00000000
Si      -2.47795335       0.72764172      -2.03758904       0.00000000
Si       1.58614101       0.81291987      -3.03963725       0.00000000
Si       3.50186130      -0.14390586       0.36720914       0.00000000
Si       2.70658350      -2.30670473       0.06110935       0.00000000
Si      -2.59649568      -2.55151573       0.58033146       0.00000000
Si       0.99883764      -1.43270550      -3.30771652       0.00000000
