10
Lattice="16.28999089631971 0.0 0.0 0.0 16.28999089631971 0.0 0.0 0.0 34.56409401068381" Properties=species:S:1:pos:R:3:initial_magmoms:R:1 pbc="T T T"
Si       0.38753910      -0.55524465      -2.20169945       0.00000000
Si       0.00174303      -1.64025639       1.67138226       0.00000000
Si      -1.60322922       1.58493555       0.73835859       0.00000000
Si       2.24935578       0.75945609      -0.79487091       0.00000000
Si      -1.75827744      -2.85667793       0.67479518       0.00000000
Si      -0.34026552       2.42018901       2.61256307       0.00000000
Si       3.32516367       1.25314083       1.26960901       0.00000000
Si       2.15394525      -2.54870897       1.92380398       0.00000000
Si      -3.73827807       0.42316533       1.02043632       0.00000000
Si      -2.31546060       3.00423438      -1.04335232       0.00000000
