10
Lattice="16.28999089631971 0.0 0.0 0.0 16.28999089631971 0.0 0.0 0.0 34.56409401068381" Properties=species:S:1:pos:R:3:initial_magmoms:R:1 pbc="T T T"
Si      -0.66982851       2.20301073      -0.39143858       0.00000000
Si       0.86558544      -0.82608219      -2.08781070       0.00000000
Si       0.60854553       0.06848316       2.34524422       0.00000000
Si      -1.32147738      -2.23003584      -0.02098042       0.00000000
Si       0.36215928      -2.24940465       2.06600075       0.00000000
Si       1.40206401       3.27196053      -0.91857588       0.00000000
Si      -1.33871220       0.76760109       3.57399845       0.00000000
Si      -1.09270062      -1.52958213      -3.46664231       0.00000000
Si      -2.39045976       2.36898954      -2.10491994       0.00000000
Si       1.52964729       0.93514374      -3.56680911       0.00000000
