10
Lattice="16.28999089631971 0.0 0.0 0.0 16.28999089631971 0.0 0.0 0.0 34.56409401068381" Properties=species:S:1:pos:R:3:initial_magmoms:R:1 pbc="T T T"
Si      -0.93801078      -1.95409953      -0.94957989       0.00000000
Si       0.03953583       2.05021053      -1.20172509       0.00000000
Si      -2.08327923       0.67745223       1.02952668       0.00000000
Si       2.16746595      -0.33311421       1.12889851       0.00000000
Si       2.66367564       1.91075184       1.38868238       0.00000000
Si       2.44428192       2.46591504      -0.90381700       0.00000000
Si      -2.26422855      -2.81766501       0.80399584       0.00000000
Si      -2.49852762      -1.30316742      -2.54426438       0.00000000
Si      -3.08687355      -1.09167435       2.20982202       0.00000000
Si      -2.54169612       2.60286507      -1.84575822       0.00000000
