10
Lattice="16.28999089631971 0.0 0.0 0.0 16.28999089631971 0.0 0.0 0.0 34.56409401068381" Properties=species:S:1:pos:R:3:initial_magmoms:R:1 pbc="T T T"
Si      -1.35469269      -1.35654975       1.35705622       0.00000000
Si       1.35716877      -1.35718506      -1.35674514       0.00000000
Si       1.35705474       1.35690813       1.35774750       0.00000000
Si      -1.35729909       1.35705474      -1.35764381       0.00000000
Si       0.00001629       2.71252935      -2.71438895       0.00000000
Si      -0.00278559      -2.71394658       2.71297182       0.00000000
Si       2.71407690      -0.00014661      -2.71311008       0.00000000
Si       0.00017919      -2.71432125      -2.71335202       0.00000000
Si      -2.71456560      -2.71438641       0.00027651       0.00000000
Si      -2.71474479       2.71523349       0.00027651       0.00000000
