10
Lattice="16.28999089631971 0.0 0.0 0.0 16.28999089631971 0.0 0.0 0.0 34.56409401068381" Properties=species:S:1:pos:R:3:initial_magmoms:R:1 pbc="T T T"
Si       2.07751257       1.02073140      -0.40374341       0.00000000
Si      -0.78397254      -1.21920876      -1.88785731       0.00000000
Si      -1.43863506       1.88923275       0.16711749       0.00000000
Si       0.09804951      -1.06534971       2.13837800       0.00000000
Si      -1.27369881      -2.94471072       1.73193859       0.00000000
Si      -2.26181763       1.61486028       2.37427807       0.00000000
Si       2.09289033       2.78003511       1.19709350       0.00000000
Si       2.37822597      -1.72167381       2.36781458       0.00000000
Si      -3.16496781      -1.56716316      -1.44719942       0.00000000
Si      -0.78441237       0.43385157       3.71443244       0.00000000
