10
Lattice="16.28999089631971 0.0 0.0 0.0 16.28999089631971 0.0 0.0 0.0 34.56409401068381" Properties=species:S:1:pos:R:3:initial_magmoms:R:1 pbc="T T T"
Si       1.34938215      -1.30179906       1.41857343       0.00000000
Si      -1.24149348      -1.71072693      -1.14345207       0.00000000
Si      -1.37969784       1.40472093       1.42661650       0.00000000
Si       1.09493235       1.65715468      -1.47356981       0.00000000
Si      -0.87687441       3.22624169      -1.19654497       0.00000000
Si       2.69348634      -2.73557970      -0.05419999       0.00000000
Si      -0.02085120      -2.64745080       2.78788953       0.00000000
Si       2.70954828       2.76621209       0.03633725       0.00000000
Si       2.69526195       0.06506226       2.79331610       0.00000000
Si      -2.86858755       2.64660113       0.09706640       0.00000000
