10
Lattice="16.28999089631971 0.0 0.0 0.0 16.28999089631971 0.0 0.0 0.0 34.56409401068381" Properties=species:S:1:pos:R:3:initial_magmoms:R:1 pbc="T T T"
Si       0.42937182      -0.56685942      -2.22769167       0.00000000
Si       1.05490782       1.89701027       0.89738807       0.00000000
Si      -1.93199400       1.20963091      -0.57770459       0.00000000
Si      -0.96154983      -2.02087224       0.81001000       0.00000000
Si       2.56997556      -1.13006988       1.83998601       0.00000000
Si      -2.50276302      -2.06299818      -1.03032165       0.00000000
Si       2.74843251      -1.56887361      -1.66419293       0.00000000
Si       1.77026688       3.11134832      -1.05617561       0.00000000
Si      -2.61055395       2.46408960       1.23507946       0.00000000
Si      -0.58526712       2.93085512       2.35398894       0.00000000
