10
Lattice="16.28999089631971 0.0 0.0 0.0 16.28999089631971 0.0 0.0 0.0 34.56409401068381" Properties=species:S:1:pos:R:3:initial_magmoms:R:1 pbc="T T T"
Si      -0.90471402      -1.32315525      -1.63982523       0.00000000
Si      -1.96162551       1.17997659       0.50888744       0.00000000
Si       0.89010189      -0.85889025       2.00261016       0.00000000
Si       1.30378644       1.65947926      -1.07345767       0.00000000
Si      -1.50135156       0.42058925      -3.04737962       0.00000000
Si      -1.51094637       1.43005905       2.80505062       0.00000000
Si       2.88119601       0.45825385       2.10184373       0.00000000
Si       3.34145367       1.42478760      -0.01033467       0.00000000
Si      -2.92760622      -2.07793611      -0.59958367       0.00000000
Si      -2.43906912       2.16776636      -1.64933036       0.00000000
