10
Lattice="16.28999089631971 0.0 0.0 0.0 16.28999089631971 0.0 0.0 0.0 34.56409401068381" Properties=species:S:1:pos:R:3:initial_magmoms:R:1 pbc="T T T"
Si      -1.34231229      -1.35545242      -1.37451109       0.00000000
Si       1.37635839       1.35401340      -1.37492586       0.00000000
Si       1.41007869      -1.34422861       1.37257550       0.00000000
Si      -1.29474549       1.50075372       1.40599900       0.00000000
Si       2.33530182       0.42466890       2.60637609       0.00000000
Si       0.66354057       2.20425366       2.78483061       0.00000000
Si      -2.68366347       2.71950636      -0.03242114       0.00000000
Si      -2.70438435      -2.71013702       0.00411313       0.00000000
Si      -2.69711901      -0.00362290      -2.73315726       0.00000000
Si       0.01741401       2.71297407      -2.73198208       0.00000000
