10
Lattice="16.28999089631971 0.0 0.0 0.0 16.28999089631971 0.0 0.0 0.0 34.56409401068381" Properties=species:S:1:pos:R:3:initial_magmoms:R:1 pbc="T T T"
Si       0.92522313       1.76889751       1.23380059       0.00000000
Si       1.33050204      -1.37916847      -1.36936104       0.00000000
Si      -1.19166237      -1.46517967       1.43890404       0.00000000
Si      -1.41007869       1.34422861      -1.37257550       0.00000000
Si      -1.55025414       0.21051140       3.18190314       0.00000000
Si       2.67125049       2.67838450      -0.05091294       0.00000000
Si      -2.69855253      -2.67542893       0.00152082       0.00000000
Si       2.58804117      -2.78607061       0.16538928       0.00000000
Si       2.68193610      -0.01617601      -2.74850373       0.00000000
Si      -0.03372030       2.69824201      -2.74750137       0.00000000
