10
Lattice="16.28999089631971 0.0 0.0 0.0 16.28999089631971 0.0 0.0 0.0 34.56409401068381" Properties=species:S:1:pos:R:3:initial_magmoms:R:1 pbc="T T T"
Si       0.66406185       1.76122593      -1.47899841       0.00000000
Si      -0.86558544       0.82608219       2.08781070       0.00000000
Si       1.67176125      -1.77958476      -0.17845452       0.00000000
Si      -1.95828606      -0.70349994      -1.37883161       0.00000000
Si      -2.18706282      -1.40395365       2.06683028       0.00000000
Si       2.07888093       0.50200893      -2.81777021       0.00000000
Si      -0.66354057      -2.20425366      -2.78483061       0.00000000
Si       2.13066684       3.00495114      -0.13742691       0.00000000
Si       3.16447911       1.41823998       1.30562482       0.00000000
Si      -1.53541395       3.02909292       1.69637212       0.00000000
