10
Lattice="16.28999089631971 0.0 0.0 0.0 16.28999089631971 0.0 0.0 0.0 34.56409401068381" Properties=species:S:1:pos:R:3:initial_magmoms:R:1 pbc="T T T"
Si       0.24772203      -1.27603480      -1.95992348       0.00000000
Si      -2.11973625       1.04629041      -0.31982174       0.00000000
Si       0.15294681      -1.24326257       2.03520412       0.00000000
Si       1.58614101       1.82151522       0.18457237       0.00000000
Si      -0.73907730       0.61405155       3.31418001       0.00000000
Si      -2.08873638       2.06896032       1.90482829       0.00000000
Si      -3.38496426      -0.83780284      -1.13377205       0.00000000
Si       2.46271798      -2.00363579      -1.89549597       0.00000000
Si       1.30367241      -3.28205123       1.26003475       0.00000000
Si       0.37600578       0.15506451      -3.87304715       0.00000000
