10
Lattice="16.28999089631971 0.0 0.0 0.0 16.28999089631971 0.0 0.0 0.0 34.56409401068381" Properties=species:S:1:pos:R:3:initial_magmoms:R:1 pbc="T T T"
Si       1.35552348       1.35334062       1.38217050       0.00000000
Si      -1.35811359      -1.36653552       1.38227419       0.00000000
Si       1.39194792      -1.36052451      -1.40275689       0.00000000
Si      -1.49499846       1.30020264      -1.41620924       0.00000000
Si      -0.15561837      -2.58628185      -2.78714092       0.00000000
Si      -2.71262709       2.69320941       0.03569090       0.00000000
Si       2.70981384       2.70130554      -0.00313842       0.00000000
Si      -2.71119357      -2.72531700       0.01325534       0.00000000
Si       2.71073745      -2.73178413       0.01640067       0.00000000
Si      -0.00014661       2.70666495       2.74351267       0.00000000
