10
Lattice="16.28999089631971 0.0 0.0 0.0 16.28999089631971 0.0 0.0 0.0 34.56409401068381" Properties=species:S:1:pos:R:3:initial_magmoms:R:1 pbc="T T T"
Si      -1.59418827       1.09309158       1.30666174       0.00000000
Si      -1.46660499      -1.24372521      -1.34157149       0.00000000
Si       1.03381227      -1.58671116       1.44305173       0.00000000
Si       1.27291689       1.54593729      -1.36379622       0.00000000
Si       1.92076923       0.38737620       2.28050563       0.00000000
Si       0.10257813       1.94369022       2.70204956       0.00000000
Si      -0.05178591      -2.50294221      -2.68034330       0.00000000
Si      -2.13066684      -3.00495114       0.13742691       0.00000000
Si       2.71818265      -2.53141713       0.08900259       0.00000000
Si       2.65269196       0.20999439      -2.67170227       0.00000000
