10
Lattice="16.28999089631971 0.0 0.0 0.0 16.28999089631971 0.0 0.0 0.0 34.56409401068381" Properties=species:S:1:pos:R:3:initial_magmoms:R:1 pbc="T T T"
Si       1.34990343       1.36210464       1.37574158       0.00000000
Si      -1.36231641      -1.35456237       1.37335665       0.00000000
Si      -1.36273995       1.27128789      -1.47692456       0.00000000
Si       1.27206981      -1.40568039      -1.48233385       0.00000000
Si       2.01590379       0.60294177      -2.39840417       0.00000000
Si      -2.24210673      -0.63364842      -2.67650616       0.00000000
Si       0.44326719       2.32106436      -2.73882029       0.00000000
Si      -0.58438746      -2.38197267      -2.84164852       0.00000000
Si      -2.70684414       2.70506853      -0.00415115       0.00000000
Si       2.70386799      -2.71844262      -0.01471740       0.00000000
