10
Lattice="16.28999089631971 0.0 0.0 0.0 16.28999089631971 0.0 0.0 0.0 34.56409401068381" Properties=species:S:1:pos:R:3:initial_magmoms:R:1 pbc="T T T"
Si       0.74383398       2.00862216      -0.91607032       0.00000000
Si      -1.27206981       1.40568039       1.48233385       0.00000000
Si       1.43179818      -1.31276223       1.46761645       0.00000000
Si      -1.85645727      -0.97629228      -1.35931468       0.00000000
Si      -2.63480976       2.67696828       0.00540928       0.00000000
Si      -3.51417654       0.77203197      -1.19417231       0.00000000
Si      -2.77301412      -2.71386513       0.05454563       0.00000000
Si      -2.63438622       0.05111802       2.85569050       0.00000000
Si       2.74436557       2.75805990       0.10372345       0.00000000
Si       2.69956644      -2.80420947       0.05456982       0.00000000
