10
Lattice="16.28999089631971 0.0 0.0 0.0 16.28999089631971 0.0 0.0 0.0 34.56409401068381" Properties=species:S:1:pos:R:3:initial_magmoms:R:1 pbc="T T T"
Si       1.35672376       1.35708732      -1.35709078       0.00000000
Si      -1.35687555       1.35676152       1.35760924       0.00000000
Si      -1.35786924      -1.35848826      -1.35598473       0.00000000
Si       1.35838553      -1.35876519       1.35781663       0.00000000
Si      -2.71423980       2.71402803       0.00000000       0.00000000
Si      -2.71409319       0.00003258      -2.71456177       0.00000000
Si      -0.00187335       2.71669959      -2.71217684       0.00000000
Si      -0.00219915      -2.71181259      -2.71732690       0.00000000
Si       2.71536774      -0.00061902       2.71438895       0.00000000
Si      -2.71489140      -0.00143352       2.71487285       0.00000000
