10
Lattice="16.28999089631971 0.0 0.0 0.0 16.28999089631971 0.0 0.0 0.0 34.56409401068381" Properties=species:S:1:pos:R:3:initial_magmoms:R:1 pbc="T T T"
Si      -1.69676640      -0.85059864      -1.39538782       0.00000000
Si      -0.26327898       0.41102928       2.31973590       0.00000000
Si       1.81819110      -1.55631402      -0.42154393       0.00000000
Si       0.97795386       1.86036687      -1.26235055       0.00000000
Si      -0.10257813      -1.94369022      -2.70204956       0.00000000
Si       2.64327471      -1.86629643       1.67238462       0.00000000
Si       1.45498275      -0.82073907       3.39620065       0.00000000
Si       0.93123414      -3.53040138      -1.25899783       0.00000000
Si       0.08190612       2.68578117       2.78116681       0.00000000
Si      -2.85102693       0.94877847      -2.52138294       0.00000000
