10
Lattice="16.28999089631971 0.0 0.0 0.0 16.28999089631971 0.0 0.0 0.0 34.56409401068381" Properties=species:S:1:pos:R:3:initial_magmoms:R:1 pbc="T T T"
Si      -1.55114194       1.43029458      -1.16418847       0.00000000
Si      -1.26353385      -1.87315452       0.85525442       0.00000000
Si       1.84235013      -0.85401954      -1.35304678       0.00000000
Si      -1.16154216       1.78049700       1.84143770       0.00000000
Si       1.17936342       1.74314403       2.43130886       0.00000000
Si       0.72959652      -0.60835005      -3.44739010       0.00000000
Si      -0.44818677       1.45948626      -3.24709106       0.00000000
Si      -1.10011257      -3.29895306      -1.10176568       0.00000000
Si      -3.53363399       0.17042598      -1.26017301       0.00000000
Si       2.27178711      -2.98906839      -0.39261376       0.00000000
