10
Lattice="16.28999089631971 0.0 0.0 0.0 16.28999089631971 0.0 0.0 0.0 34.56409401068381" Properties=species:S:1:pos:R:3:initial_magmoms:R:1 pbc="T T T"
Si       1.35698221       1.35814617       1.35657232       0.00000000
Si      -1.35748958      -1.35765747       1.35667601       0.00000000
Si       1.35757027      -1.35738054      -1.35754012       0.00000000
Si      -1.35838553       1.35876519      -1.35781663       0.00000000
Si      -2.71234517      -0.00009774       2.71345572       0.00000000
Si      -0.00167331      -2.71498914       2.71107079       0.00000000
Si       2.71431713      -2.71448415       0.00000000       0.00000000
Si      -2.71504931      -2.71450044      -0.00044933       0.00000000
Si      -2.71625477       0.00027693      -2.71380136       0.00000000
Si       2.71527824       2.71539639      -0.00031108       0.00000000
