10
Lattice="16.28999089631971 0.0 0.0 0.0 16.28999089631971 0.0 0.0 0.0 34.56409401068381" Properties=species:S:1:pos:R:3:initial_magmoms:R:1 pbc="T T T"
Si      -1.35698221      -1.35814617      -1.35657232       0.00000000
Si       1.35829604       1.35725022      -1.35688340       0.00000000
Si      -1.35584569       1.35620766       1.36072001       0.00000000
Si       1.35826346      -1.36062225       1.35978678       0.00000000
Si       2.71505756       0.00013032      -2.71421613       0.00000000
Si       0.00058807      -2.71552671      -2.71411243       0.00000000
Si      -2.71536774       0.00061902      -2.71438895       0.00000000
Si      -0.00017430       2.71521720      -2.71456177       0.00000000
Si      -2.71421115       2.71580364       0.00100236       0.00000000
Si      -2.71447179      -2.71580364       0.00010369       0.00000000
