10
Lattice="16.28999089631971 0.0 0.0 0.0 16.28999089631971 0.0 0.0 0.0 34.56409401068381" Properties=species:S:1:pos:R:3:initial_magmoms:R:1 pbc="T T T"
Si      -1.22158710       0.88194060       1.76394496       0.00000000
Si       0.85545306       2.10137742      -0.89624746       0.00000000
Si      -2.01317426      -1.01530683      -0.94529394       0.00000000
Si       2.34636273      -1.48823811       1.13512005       0.00000000
Si      -0.45059932      -1.82063556      -2.49158867       0.00000000
Si       0.76198104       1.59646887       2.88036582       0.00000000
Si      -1.44360840       3.00923541       0.67482975       0.00000000
Si       2.55573810       0.77814072      -2.14757205       0.00000000
Si       0.61828695      -3.38540409      -1.16145790       0.00000000
Si       0.77006088       3.42019953       1.31941590       0.00000000
