10
Lattice="16.28999089631971 0.0 0.0 0.0 16.28999089631971 0.0 0.0 0.0 34.56409401068381" Properties=species:S:1:pos:R:3:initial_magmoms:R:1 pbc="T T T"
Si      -2.00994165      -0.50228586       1.22343136       0.00000000
Si       1.86030171      -1.21642317       0.97785333       0.00000000
Si       0.50404518       2.27900358      -0.69712360       0.00000000
Si       0.16910649       0.65684538      -2.54015125       0.00000000
Si      -0.47172582      -1.53433881      -2.19115740       0.00000000
Si       0.72177732      -1.95664077       2.96435662       0.00000000
Si      -1.42260570      -2.53377918       2.28714194       0.00000000
Si       1.49465637       3.34085094       1.15419944       0.00000000
Si       3.77651070       0.15139926       0.83033369       0.00000000
Si       2.43331875      -3.07498185      -0.36040001       0.00000000
