10
Lattice="16.28999089631971 0.0 0.0 0.0 16.28999089631971 0.0 0.0 0.0 34.56409401068381" Properties=species:S:1:pos:R:3:initial_magmoms:R:1 pbc="T T T"
Si       1.09072953       1.76748129      -1.08638465       0.00000000
Si      -1.83955314      -0.93007755      -1.14168723       0.00000000
Si       1.51873299      -1.82434968       0.22767381       0.00000000
Si      -0.42697719       0.32405697       2.34126934       0.00000000
Si      -2.70929741      -2.13355017       0.70268842       0.00000000
Si       3.61766691      -0.80210331       0.14672466       0.00000000
Si      -0.85009365      -2.35170585      -2.74363019       0.00000000
Si      -2.32367890      -1.00364319       2.80335698       0.00000000
Si       2.62793538       2.78080074       0.45365399       0.00000000
Si      -0.41044284       2.87612982      -2.54457546       0.00000000
