10
Lattice="16.28999089631971 0.0 0.0 0.0 16.28999089631971 0.0 0.0 0.0 34.56409401068381" Properties=species:S:1:pos:R:3:initial_magmoms:R:1 pbc="T T T"
Si       1.35630676       1.35013149       1.35658269       0.00000000
Si       1.30653266      -1.37067318      -1.39424375       0.00000000
Si      -1.35999928      -1.36094805       1.36010823       0.00000000
Si      -1.30401055       1.38476403      -1.42804054       0.00000000
Si      -0.69399892      -2.12011092      -2.41403752       0.00000000
Si      -2.26663552      -0.40198833      -2.75445363       0.00000000
Si       2.55842079       0.20281050      -2.58116814       0.00000000
Si      -2.70881128       2.69907870      -0.00970560       0.00000000
Si       0.00042749       2.70906831       2.71495234       0.00000000
Si       2.71413690      -0.00542457       2.71529798       0.00000000
