10
Lattice="16.28999089631971 0.0 0.0 0.0 16.28999089631971 0.0 0.0 0.0 34.56409401068381" Properties=species:S:1:pos:R:3:initial_magmoms:R:1 pbc="T T T"
Si      -1.35706940      -1.35762489       1.35681427       0.00000000
Si      -1.35783014       1.35555606      -1.35871529       0.00000000
Si       1.35830907       1.35689184       1.35691796       0.00000000
Si       1.35733167      -1.35413883      -1.36196432       0.00000000
Si      -2.71370942       2.71449288      -0.00034564       0.00000000
Si      -2.71375144      -0.00068418       2.71466546       0.00000000
Si       0.00083079       2.71474306       2.71428526       0.00000000
Si      -2.71413690       0.00542457      -2.71529798       0.00000000
Si       0.00140094      -2.71559187       2.71449264       0.00000000
Si       2.71588509       2.71426117      -0.00176277       0.00000000
