10
Lattice="16.28999089631971 0.0 0.0 0.0 16.28999089631971 0.0 0.0 0.0 34.56409401068381" Properties=species:S:1:pos:R:3:initial_magmoms:R:1 pbc="T T T"
Si      -1.21468081      -1.42210071      -1.43244055       0.00000000
Si       1.53056605      -1.45184625       1.16574385       0.00000000
Si       1.50301966       1.21239954      -1.49638416       0.00000000
Si      -0.76849541      -0.54398826       2.73682106       0.00000000
Si       1.44517387      -0.13302414       3.38140721       0.00000000
Si      -2.47221994      -0.01519857      -2.96719087       0.00000000
Si       2.88004594       2.60015834      -0.11630824       0.00000000
Si      -2.63679781      -2.97352773      -0.06501510       0.00000000
Si       0.24253366       2.68114571      -2.97244462       0.00000000
Si       0.23876416      -2.71682991      -2.95906831       0.00000000
