10
Lattice="16.28999089631971 0.0 0.0 0.0 16.28999089631971 0.0 0.0 0.0 34.31420841018396" Properties=species:S:1:pos:R:3:initial_magmoms:R:1 pbc="T T T"
Si       1.35661491       1.35519768       1.35654436       0.00000000
Si      -1.35747828       1.35723393      -1.35836301       0.00000000
Si       1.35783666      -1.35790508      -1.35774536       0.00000000
Si      -1.35913986      -1.35960738       1.35750516       0.00000000
Si       2.71410948      -0.00066789       2.71312303       0.00000000
Si       2.71412577       0.00019548      -2.71463286       0.00000000
Si       0.00131949       2.71494027      -2.71463286       0.00000000
Si      -2.71471221       2.71487511      -0.00058334       0.00000000
Si       2.71490769      -2.71471889      -0.00030883       0.00000000
Si       2.71492398       2.71489140       0.00017157       0.00000000
