10
Lattice="16.28999089631971 0.0 0.0 0.0 16.28999089631971 0.0 0.0 0.0 34.31420841018396" Properties=species:S:1:pos:R:3:initial_magmoms:R:1 pbc="T T T"
Si      -1.36423863      -1.34609157      -1.38619185       0.00000000
Si       1.34574948       1.37101527      -1.38169669       0.00000000
Si      -1.47088926       1.27205352       1.35520610       0.00000000
Si       1.46722401      -1.34156295       1.59897438       0.00000000
Si       0.30465558       2.27989953       2.60469007       0.00000000
Si       2.69806383      -2.71044423      -0.00418634       0.00000000
Si      -2.71086777      -2.71340901      -0.01152958       0.00000000
Si       2.71981098       2.71958292      -0.00497556       0.00000000
Si      -0.01140300      -2.70368388      -2.74712843       0.00000000
Si       2.70454725       0.01280394      -2.74671666       0.00000000
