10
Lattice="16.28999089631971 0.0 0.0 0.0 16.28999089631971 0.0 0.0 0.0 34.31420841018396" Properties=species:S:1:pos:R:3:initial_magmoms:R:1 pbc="T T T"
Si       2.14083180       0.09285300      -0.82632091       0.00000000
Si       0.00068418      -0.97681356       2.09838365       0.00000000
Si      -0.71159118       2.19988305       0.32396062       0.00000000
Si      -0.74182868      -1.37712402      -1.80770782       0.00000000
Si       1.60565643      -2.07968566      -1.69594638       0.00000000
Si      -2.29171697      -1.44976113       1.97790639       0.00000000
Si      -1.97095316       1.86955443      -2.16014926       0.00000000
Si      -3.29185781      -0.00208512      -1.53391460       0.00000000
Si      -0.92115226       0.33037749      -3.58995449       0.00000000
Si      -2.69926019       2.03418117       1.61980311       0.00000000
