10
Lattice="16.28999089631971 0.0 0.0 0.0 16.28999089631971 0.0 0.0 0.0 34.31420841018396" Properties=species:S:1:pos:R:3:initial_magmoms:R:1 pbc="T T T"
Si       1.35578412       1.35772263      -1.35733359       0.00000000
Si      -1.35718506      -1.35773892      -1.35644142       0.00000000
Si      -1.35723393       1.35702216       1.35747084       0.00000000
Si       1.35738054      -1.35783666       1.35729927       0.00000000
Si       0.00034209       2.71353933      -2.71010338       0.00000000
Si      -0.00104256      -2.71510317       2.71380932       0.00000000
Si      -2.71456723       2.71474479      -0.00041177       0.00000000
Si       2.71477737      -2.71500543      -0.00017157       0.00000000
Si       2.71492398       2.71492398       0.00003431       0.00000000
Si       2.71448415      -0.00029322       2.71542209       0.00000000
