10
Lattice="16.28999089631971 0.0 0.0 0.0 16.28999089631971 0.0 0.0 0.0 34.31420841018396" Properties=species:S:1:pos:R:3:initial_magmoms:R:1 pbc="T T T"
Si       1.35619137      -1.35788553      -1.36028461       0.00000000
Si      -1.35861858       1.35874890      -1.36138267       0.00000000
Si       1.39036779       1.33677369       1.36176012       0.00000000
Si      -1.36936998      -1.35663120       1.36989259       0.00000000
Si      -0.11205891       2.58253515       2.59604289       0.00000000
Si       2.71280628      -2.71505430       0.00394614       0.00000000
Si       2.71306692       2.71590138      -0.00096080       0.00000000
Si      -2.71042794      -2.71873584      -0.00374025       0.00000000
Si      -2.71419093       2.71534752      -0.00422065       0.00000000
Si       2.71388142      -0.00008145      -2.71802997       0.00000000
