10
Lattice="16.28999089631971 0.0 0.0 0.0 16.28999089631971 0.0 0.0 0.0 34.31420841018396" Properties=species:S:1:pos:R:3:initial_magmoms:R:1 pbc="T T T"
Si       0.87962742       1.79457156       1.22728266       0.00000000
Si      -0.59408001       0.84822030      -2.15671783       0.00000000
Si      -1.86320133      -0.62276670       1.42606498       0.00000000
Si       1.82130345      -1.67604552      -0.16234061       0.00000000
Si       0.51924375      -3.34293606      -1.30033765       0.00000000
Si       1.30789152      -2.62498689       2.14055583       0.00000000
Si      -1.13450076       3.11062437       1.54005685       0.00000000
Si      -1.05103080      -2.67708231       2.27259698       0.00000000
Si      -2.27783070      -0.74880243      -2.92010645       0.00000000
Si       1.46748465       1.04848956       3.34913724       0.00000000
