10
Lattice="16.28999089631971 0.0 0.0 0.0 16.28999089631971 0.0 0.0 0.0 34.31420841018396" Properties=species:S:1:pos:R:3:initial_magmoms:R:1 pbc="T T T"
Si      -0.94024251      -1.58113998       1.58918937       0.00000000
Si       1.66190580       1.09061550       1.41799912       0.00000000
Si       0.82192824      -1.33073010      -1.89019923       0.00000000
Si      -1.97296335       1.63610244      -0.03434854       0.00000000
Si      -0.93732660      -3.37681926      -1.33530385       0.00000000
Si      -2.62378143      -2.69232975       0.25241546       0.00000000
Si      -2.34515727      -0.30942855       2.98481764       0.00000000
Si       0.36357651       2.40730362       2.95772655       0.00000000
Si      -1.16025525       3.51479556       1.51228089       0.00000000
Si       3.15410238       2.52729576       0.05277528       0.00000000
