10
Lattice="16.28999089631971 0.0 0.0 0.0 16.28999089631971 0.0 0.0 0.0 34.31420841018396" Properties=species:S:1:pos:R:3:initial_magmoms:R:1 pbc="T T T"
Si      -1.35557235       1.35659862       1.35716202       0.00000000
Si       1.35752715       1.35635427      -1.35678456       0.00000000
Si      -1.35690813      -1.35931905      -1.35685319       0.00000000
Si       1.35861858      -1.35874890       1.36138267       0.00000000
Si       0.00000000       2.71370223      -2.71442697       0.00000000
Si      -2.71725019       2.71138905      -0.00054903       0.00000000
Si      -2.71424143      -0.00159642      -2.71473580       0.00000000
Si       2.71572219       2.71326240       0.00058334       0.00000000
Si      -0.02508660       2.71660185       2.71240243       0.00000000
Si       2.71524978      -0.00141723      -2.71428972       0.00000000
