10
Lattice="16.28999089631971 0.0 0.0 0.0 16.28999089631971 0.0 0.0 0.0 34.31420841018396" Properties=species:S:1:pos:R:3:initial_magmoms:R:1 pbc="T T T"
Si      -1.85670162       0.27908028      -1.38536831       0.00000000
Si       1.62680085      -1.23831693      -1.18233103       0.00000000
Si      -1.03684221      -1.09753875       1.90049349       0.00000000
Si       0.92199771       2.24639100       0.04683892       0.00000000
Si       1.26182340      -0.15793155      -3.23919446       0.00000000
Si       1.91270664       2.29042287       2.15074716       0.00000000
Si       0.42365403      -2.89695984       2.34517157       0.00000000
Si      -0.98591967       0.61121709      -3.57787588       0.00000000
Si      -3.38513368       1.71058032      -0.13358529       0.00000000
Si      -3.11800048      -1.67070403      -1.71416724       0.00000000
