10
Lattice="16.28999089631971 0.0 0.0 0.0 16.28999089631971 0.0 0.0 0.0 34.31420841018396" Properties=species:S:1:pos:R:3:initial_magmoms:R:1 pbc="T T T"
Si      -0.00847080      -1.33380891      -1.95570509       0.00000000
Si      -1.18389204       2.05705233      -0.11388892       0.00000000
Si       2.35678833       0.42207390      -0.07157948       0.00000000
Si      -0.92667294      -1.43229825       1.86816949       0.00000000
Si       3.08710161      -1.80788049      -0.47858053       0.00000000
Si       1.10154609      -2.68673576       2.36346105       0.00000000
Si       1.45202544      -3.13323000      -1.51102701       0.00000000
Si      -1.97385767      -2.66992285      -1.87613039       0.00000000
Si      -2.61491804      -2.74937733       0.43946231       0.00000000
Si       2.94107805       2.05415271      -1.70545143       0.00000000
