10
Lattice="16.28999089631971 0.0 0.0 0.0 16.28999089631971 0.0 0.0 0.0 34.31420841018396" Properties=species:S:1:pos:R:3:initial_magmoms:R:1 pbc="T T T"
Si       0.17396091      -0.48883032       2.28265105       0.00000000
Si       2.14731522       0.78525945      -0.56096899       0.00000000
Si      -0.62861481      -2.27193372      -0.33583335       0.00000000
Si      -0.22970529       2.38586665       0.25824888       0.00000000
Si       0.96589926       0.96633909      -2.60554793       0.00000000
Si      -0.11909619       3.00797198      -2.03325524       0.00000000
Si       3.42707391      -1.15004142      -0.38747626       0.00000000
Si       1.74174309       1.10423575       3.00115666       0.00000000
Si       1.61508834       2.94623288       1.56339052       0.00000000
Si      -3.54685428      -0.19476324      -1.10210436       0.00000000
