10
Lattice="16.28999089631971 0.0 0.0 0.0 16.28999089631971 0.0 0.0 0.0 34.31420841018396" Properties=species:S:1:pos:R:3:initial_magmoms:R:1 pbc="T T T"
Si      -2.18077488      -0.52072614      -0.74698642       0.00000000
Si       0.82885149       0.97142157      -1.99159777       0.00000000
Si       0.62151237      -2.25114768       0.55973368       0.00000000
Si      -0.01304829       1.62086707       1.83828180       0.00000000
Si      -3.07506330      -0.21507687       1.38725559       0.00000000
Si       2.91823947      -2.07717048       0.76627102       0.00000000
Si       3.54685428       0.19476324       1.10210436       0.00000000
Si      -1.67922207      -1.29863880       3.10245226       0.00000000
Si      -2.38034367      -2.85294915      -1.03810833       0.00000000
Si      -0.29729250       0.45253620       3.82833543       0.00000000
