10
Lattice="16.28999089631971 0.0 0.0 0.0 16.28999089631971 0.0 0.0 0.0 34.31420841018396" Properties=species:S:1:pos:R:3:initial_magmoms:R:1 pbc="T T T"
Si       2.05521156       1.29484879       0.11073201       0.00000000
Si      -0.87451236       1.88423076      -1.26482243       0.00000000
Si       0.97497279      -1.93158675       1.18967427       0.00000000
Si      -2.06079903       0.66394790       1.38035843       0.00000000
Si       0.89192637      -0.88185915      -2.97404842       0.00000000
Si      -0.52359318       2.03439035       2.66227076       0.00000000
Si       2.45970855       0.71120692      -2.25554281       0.00000000
Si      -3.19241646       1.47956924      -0.64603396       0.00000000
Si       1.10299590       3.15166607       1.40295513       0.00000000
Si       2.24800371      -0.77716332       2.78819368       0.00000000
