10
Lattice="16.28999089631971 0.0 0.0 0.0 16.28999089631971 0.0 0.0 0.0 34.31420841018396" Properties=species:S:1:pos:R:3:initial_magmoms:R:1 pbc="T T T"
Si       1.23080724       1.33010945      -1.52952238       0.00000000
Si      -0.02621061       0.35305154       2.36967193       0.00000000
Si      -1.54458522      -1.30636596      -1.46051647       0.00000000
Si      -0.61504524      -2.11694319       1.48518840       0.00000000
Si      -2.01215709       1.73996585       2.12833997       0.00000000
Si       2.31199083       2.88021698      -0.18625763       0.00000000
Si      -2.15055693      -0.44971803       3.15509028       0.00000000
Si       2.57114844       0.00177887      -2.92930267       0.00000000
Si       3.53007558       1.15908074       1.37884861       0.00000000
Si      -0.15732882      -2.69833329      -2.90874844       0.00000000
