10
Lattice="16.28999089631971 0.0 0.0 0.0 16.28999089631971 0.0 0.0 0.0 34.31420841018396" Properties=species:S:1:pos:R:3:initial_magmoms:R:1 pbc="T T T"
Si      -1.63434312      -1.46264652       0.83074745       0.00000000
Si      -0.62851707       2.22723396       0.56934166       0.00000000
Si       2.09153826      -0.67235346       0.98286242       0.00000000
Si       0.37040202      -0.45690192      -2.36390714       0.00000000
Si      -0.54934767      -3.50427941       0.25845476       0.00000000
Si       1.31461929       3.61111833       0.19483618       0.00000000
Si       2.92022685      -2.55877293      -0.26198913       0.00000000
Si       2.66589108      -0.16063569      -2.86304189       0.00000000
Si       3.73689342       1.05282270       0.79053118       0.00000000
Si      -2.84796441       2.84591187      -0.29980341       0.00000000
