10
Lattice="16.28999089631971 0.0 0.0 0.0 16.28999089631971 0.0 0.0 0.0 34.31420841018396" Properties=species:S:1:pos:R:3:initial_magmoms:R:1 pbc="T T T"
Si      -0.12665475       1.84199713      -1.43776614       0.00000000
Si       2.11988286      -0.99123202      -0.15894350       0.00000000
Si      -1.56778218      -1.59306607      -0.71850561       0.00000000
Si      -0.40449699       0.58364187       2.36627482       0.00000000
Si      -2.45970855      -0.71120692       2.25554281       0.00000000
Si      -0.31234446      -3.48620842      -0.17575747       0.00000000
Si      -0.24710301       3.52024180       0.16800246       0.00000000
Si       0.40557213      -0.31897630      -3.56212565       0.00000000
Si      -1.97144838       1.28163090      -2.74290778       0.00000000
Si       2.22063651      -1.92433951       2.13602635       0.00000000
