10
Lattice="16.28999089631971 0.0 0.0 0.0 16.28999089631971 0.0 0.0 0.0 34.31420841018396" Properties=species:S:1:pos:R:3:initial_magmoms:R:1 pbc="T T T"
Si      -1.31193144       1.38886911       1.38608548       0.00000000
Si       1.40234094      -1.36664955       1.37205439       0.00000000
Si      -1.91340711      -0.78973920      -1.27696383       0.00000000
Si       1.34843733       0.01427004      -2.29686541       0.00000000
Si      -0.62910351      -0.84315411      -3.24235964       0.00000000
Si       2.64091851       2.56103235       0.00731922       0.00000000
Si      -2.66018958      -2.68392411      -0.04930955       0.00000000
Si      -2.53892682       2.83318938      -0.12876757       0.00000000
Si      -2.67631668       0.00807984       2.75224811       0.00000000
Si       0.04412961      -2.71120986       2.75677759       0.00000000
