10
Lattice="16.28999089631971 0.0 0.0 0.0 16.28999089631971 0.0 0.0 0.0 34.31420841018396" Properties=species:S:1:pos:R:3:initial_magmoms:R:1 pbc="T T T"
Si      -1.16440920      -1.61249823      -1.26155291       0.00000000
Si       0.74678247       1.89418491      -1.22765429       0.00000000
Si      -1.38790800       1.32696711       1.42721451       0.00000000
Si       1.35130437      -1.37152026       1.43100623       0.00000000
Si       2.66018958       2.68392411       0.04930955       0.00000000
Si      -2.77228107       2.69232975      -0.05081594       0.00000000
Si      -0.01612710       2.69200395       2.80155766       0.00000000
Si       2.68794774      -2.81666317       0.03433138       0.00000000
Si       2.70431919      -0.02728575       2.80608714       0.00000000
Si      -2.79099828      -2.72977394      -0.00223729       0.00000000
