10
Lattice="16.28999089631971 0.0 0.0 0.0 16.28999089631971 0.0 0.0 0.0 34.31420841018396" Properties=species:S:1:pos:R:3:initial_magmoms:R:1 pbc="T T T"
Si      -0.43460091       2.26789380      -0.29187682       0.00000000
Si       1.07624772      -0.42756363      -2.05051530       0.00000000
Si       1.79105292      -0.40319379       1.52715470       0.00000000
Si      -1.94313636      -1.38388437       0.37450548       0.00000000
Si       2.42227413      -2.55829563       0.59569499       0.00000000
Si      -2.69433342       2.52545499       0.20015489       0.00000000
Si       2.53395837      -2.20773483      -1.77130043       0.00000000
Si       0.29260098       3.48887817       1.57426813       0.00000000
Si      -1.31461929      -3.61111833      -0.19483618       0.00000000
Si      -2.63595006      -0.98531694       2.63269048       0.00000000
