10
Lattice="16.28999089631971 0.0 0.0 0.0 16.28999089631971 0.0 0.0 0.0 34.31420841018396" Properties=species:S:1:pos:R:3:initial_magmoms:R:1 pbc="T T T"
Si       1.36054080       1.34952876       1.39823958       0.00000000
Si      -1.35400851      -1.36671471       1.39693564       0.00000000
Si       1.49410251      -1.25252181      -1.48737421       0.00000000
Si      -1.41178914       1.38792429      -1.51752613       0.00000000
Si       2.72403009       2.68978851       0.04808453       0.00000000
Si      -2.71011843       2.70461241       0.02220131       0.00000000
Si       2.72109789      -2.69684208       0.02747883       0.00000000
Si      -2.70599706      -2.72305269       0.02863522       0.00000000
Si       0.00159642       2.70780525       2.75828399       0.00000000
Si      -2.71528236      -0.00667890       2.75821536       0.00000000
