10
Lattice="16.28999089631971 0.0 0.0 0.0 16.28999089631971 0.0 0.0 0.0 34.31420841018396" Properties=species:S:1:pos:R:3:initial_magmoms:R:1 pbc="T T T"
Si       1.55587419       1.28642130      -1.28714181       0.00000000
Si      -1.30565979       1.35777150       1.50622988       0.00000000
Si      -1.18143225      -1.26931680      -1.69506935       0.00000000
Si       1.39360950      -1.33227765       1.47891233       0.00000000
Si      -0.24391017       2.21104170      -2.73379534       0.00000000
Si      -2.13416919       0.64985697      -2.78458039       0.00000000
Si      -2.53558737      -2.58453882      -0.02922886       0.00000000
Si      -2.67625152       2.64701097       0.17391480       0.00000000
Si       2.64425796      -2.85669585       0.10685794       0.00000000
Si       2.78720271       2.73212622       0.07718985       0.00000000
