10
Lattice="16.28999089631971 0.0 0.0 0.0 16.28999089631971 0.0 0.0 0.0 34.31420841018396" Properties=species:S:1:pos:R:3:initial_magmoms:R:1 pbc="T T T"
Si      -1.13849181      -1.52855586      -1.37967215       0.00000000
Si      -0.97889868       2.14492059      -0.17109074       0.00000000
Si       2.00047716      -0.11805363      -1.25583210       0.00000000
Si      -0.07332129      -0.87073308       2.21872364       0.00000000
Si       0.60918084       3.36882087       1.01412268       0.00000000
Si      -2.33305380      -0.61317189       2.71075535       0.00000000
Si       3.04448697      -2.02030209      -0.29640630       0.00000000
Si      -0.62507988      -0.57961449      -3.68256859       0.00000000
Si       1.43752734      -3.56619051       0.46008516       0.00000000
Si      -0.06123411      -3.65555745      -1.32398016       0.00000000
