10
Lattice="16.28999089631971 0.0 0.0 0.0 16.28999089631971 0.0 0.0 0.0 34.31420841018396" Properties=species:S:1:pos:R:3:initial_magmoms:R:1 pbc="T T T"
Si       2.24933949       0.05924673       0.56223862       0.00000000
Si      -0.72720189      -1.22098437      -1.86614495       0.00000000
Si      -0.53379072       2.09982987      -0.91831736       0.00000000
Si      -1.51454646      -0.63330633       1.83989457       0.00000000
Si      -2.83589352       1.42267086      -1.06717248       0.00000000
Si      -2.98693440      -0.96342318      -1.37411324       0.00000000
Si       1.87729218       0.95404014       2.88304709       0.00000000
Si       0.30460671       3.56933448       0.70742212       0.00000000
Si      -3.04310232      -2.07270702       0.74557954       0.00000000
Si       3.10720347      -2.11783032      -0.19058122       0.00000000
