10
Lattice="16.28999089631971 0.0 0.0 0.0 16.28999089631971 0.0 0.0 0.0 34.31420841018396" Properties=species:S:1:pos:R:3:initial_magmoms:R:1 pbc="T T T"
Si      -1.35783666      -1.35664749      -1.35747084       0.00000000
Si       1.35780408       1.35804843      -1.35750516       0.00000000
Si      -1.35865116       1.35933534       1.35959833       0.00000000
Si       1.36195803      -1.36094805       1.35602965       0.00000000
Si      -2.68135029      -0.01979235       2.72231925       0.00000000
Si       2.71366965      -2.71362078      -0.00137257       0.00000000
Si      -0.00001629      -2.71396287      -2.71470149       0.00000000
Si       2.71454931       0.00097740      -2.71507894       0.00000000
Si      -2.71552671      -2.71445157       0.00027451       0.00000000
Si      -2.71461447       2.71544526      -0.00024020       0.00000000
