10
Lattice="16.28999089631971 0.0 0.0 0.0 16.28999089631971 0.0 0.0 0.0 34.31420841018396" Properties=species:S:1:pos:R:3:initial_magmoms:R:1 pbc="T T T"
Si       1.36085031       1.33730704       1.37027005       0.00000000
Si       1.35604476      -1.35769005      -1.36121109       0.00000000
Si      -1.36150191       1.35750176      -1.36138267       0.00000000
Si      -1.36762695      -1.36280511       1.39082427       0.00000000
Si       2.58895341      -0.19891719       2.81308038       0.00000000
Si       2.71352304      -2.71634121      -0.00140688       0.00000000
Si       2.71420722       2.71696742      -0.00195591       0.00000000
Si       2.71292031      -0.00046326      -2.71916234       0.00000000
Si      -2.71823085       2.71405151      -0.00549028       0.00000000
Si      -2.71831230      -2.71441899      -0.00154414       0.00000000
