10
Lattice="16.28999089631971 0.0 0.0 0.0 16.28999089631971 0.0 0.0 0.0 34.31420841018396" Properties=species:S:1:pos:R:3:initial_magmoms:R:1 pbc="T T T"
Si       0.02311551      -0.81265923       2.16498756       0.00000000
Si      -1.27975869       1.93530087      -0.17349273       0.00000000
Si      -0.83839743      -1.46950461      -1.62573947       0.00000000
Si       2.23076889       0.85823865       0.18128206       0.00000000
Si       0.43455204       1.26304515       3.22968941       0.00000000
Si       1.63149237       2.63126573       1.67734807       0.00000000
Si      -3.42707391       1.15004142       0.38747626       0.00000000
Si      -0.30460671      -3.56933448      -0.70742212       0.00000000
Si       1.57268547      -2.61529434       2.17562497       0.00000000
Si       2.79756315       1.90992105      -1.76876118       0.00000000
