10
Lattice="16.28999089631971 0.0 0.0 0.0 16.28999089631971 0.0 0.0 0.0 34.31420841018396" Properties=species:S:1:pos:R:3:initial_magmoms:R:1 pbc="T T T"
Si       1.35752715       1.35752063      -1.35644142       0.00000000
Si       1.35710361      -1.35707558       1.35753947       0.00000000
Si      -1.35819504      -1.35822503      -1.35692182       0.00000000
Si      -1.35842310       1.35815594       1.35740221       0.00000000
Si       2.71404432      -2.71415576       0.00075491       0.00000000
Si      -0.00161271       2.71377716       2.71559366       0.00000000
Si       0.00245979      -2.71524719      -2.71435834       0.00000000
Si       2.71515204       0.00044146       2.71463286       0.00000000
Si       0.00022806      -2.71430237       2.71549071       0.00000000
Si       2.71521720       2.71467311       0.00054903       0.00000000
