10
Lattice="16.28999089631971 0.0 0.0 0.0 16.28999089631971 0.0 0.0 0.0 34.31420841018396" Properties=species:S:1:pos:R:3:initial_magmoms:R:1 pbc="T T T"
Si       1.35667026       1.35740498      -1.35702476       0.00000000
Si      -1.35804843      -1.35751704      -1.35709339       0.00000000
Si       1.35778243      -1.36031178       1.35613259       0.00000000
Si      -1.35676152       1.35991364       1.36011304       0.00000000
Si      -0.00004887       2.69458592       2.72808404       0.00000000
Si       2.70593909       0.00339647       2.71943685       0.00000000
Si       0.00006516       2.71423166      -2.71408383       0.00000000
Si       2.71395702      -0.00011892      -2.71449560       0.00000000
Si      -0.00110772      -2.71459722      -2.71387795       0.00000000
Si       2.71322560       2.71540454       0.00078923       0.00000000
