10
Lattice="16.28999089631971 0.0 0.0 0.0 16.28999089631971 0.0 0.0 0.0 34.31420841018396" Properties=species:S:1:pos:R:3:initial_magmoms:R:1 pbc="T T T"
Si       2.32707537      -0.32827675       0.01434335       0.00000000
Si      -0.54558468      -2.26302376      -0.34379425       0.00000000
Si      -0.07604172       1.41121573       1.91936632       0.00000000
Si      -1.17112068       1.20042639      -1.70558868       0.00000000
Si       2.65675239       1.97795461      -0.07027554       0.00000000
Si      -3.27604932       0.08119702      -1.30153865       0.00000000
Si      -0.36582453      -2.96709385       1.92434188       0.00000000
Si      -1.40545233       3.19239040       1.27923440       0.00000000
Si      -2.73518874      -2.22443275      -1.33599014       0.00000000
Si       2.96141353      -1.42954591      -1.95941102       0.00000000
