10
Lattice="16.28999089631971 0.0 0.0 0.0 16.28999089631971 0.0 0.0 0.0 34.31420841018396" Properties=species:S:1:pos:R:3:initial_magmoms:R:1 pbc="T T T"
Si       1.17112068      -1.20042639       1.70558868       0.00000000
Si      -2.10492864      -1.11922937       0.40405003       0.00000000
Si      -0.05835078       2.37451837       0.67012255       0.00000000
Si       0.79951320       1.23693880      -2.40295673       0.00000000
Si      -2.75677299       0.43090960      -1.41213341       0.00000000
Si       2.38314555       2.32846654       0.36438278       0.00000000
Si      -2.48658705       2.57188801      -0.22527290       0.00000000
Si      -0.23433165       1.99196401       2.98482309       0.00000000
Si       0.62553600      -3.46345015       1.36179444       0.00000000
Si      -1.56406806      -3.42485914       0.36959855       0.00000000
