10
Lattice="16.28999089631971 0.0 0.0 0.0 16.28999089631971 0.0 0.0 0.0 34.31420841018396" Properties=species:S:1:pos:R:3:initial_magmoms:R:1 pbc="T T T"
Si      -1.35821133      -1.34456031       1.38472320       0.00000000
Si       1.35716877       1.37384973       1.38616440       0.00000000
Si      -1.40234094       1.36664955      -1.37205439       0.00000000
Si       1.41206607      -1.50763950      -1.44884620       0.00000000
Si      -2.71122615      -2.68879482       0.00964230       0.00000000
Si       2.69570178       2.71639008       0.01413746       0.00000000
Si      -0.00342090      -2.69998605       2.74524801       0.00000000
Si       2.72900833      -2.72088612       0.02617832       0.00000000
Si       2.70941198       0.01532889       2.74511076       0.00000000
Si      -2.71826343       0.01555695       2.74370387       0.00000000
