10
Lattice="16.28999089631971 0.0 0.0 0.0 16.28999089631971 0.0 0.0 0.0 34.31420841018396" Properties=species:S:1:pos:R:3:initial_magmoms:R:1 pbc="T T T"
Si       1.35514283       1.35816246      -1.35712770       0.00000000
Si       1.35660510      -1.35682668       1.35705907       0.00000000
Si      -1.35769005      -1.35715248      -1.35699044       0.00000000
Si      -1.35850455       1.35842310       1.35712770       0.00000000
Si       2.71316044       0.00117288       2.71487306       0.00000000
Si       2.71389186      -2.71435057      -0.00041177       0.00000000
Si      -0.00006516      -2.71423166       2.71408383       0.00000000
Si      -0.00141723       2.71500543       2.71387795       0.00000000
Si       2.71415413      -0.00228060      -2.71535346       0.00000000
Si       2.71436753       2.71526607       0.00010294       0.00000000
