10
Lattice="16.28999089631971 0.0 0.0 0.0 16.28999089631971 0.0 0.0 0.0 34.31420841018396" Properties=species:S:1:pos:R:3:initial_magmoms:R:1 pbc="T T T"
Si       1.35708732       1.35658233       1.35675024       0.00000000
Si      -1.35746199       1.35782037      -1.35747084       0.00000000
Si       1.35850455      -1.35842310      -1.35712770       0.00000000
Si      -1.35832536      -1.35931905       1.35791693       0.00000000
Si       2.71364738      -0.00026064      -2.71425540       0.00000000
Si      -0.00097740       2.71469592      -2.71391226       0.00000000
Si      -2.71459818       2.71485882       0.00020589       0.00000000
Si      -2.71402803      -0.00003258      -2.71566229       0.00000000
Si       0.00081450      -2.71557558      -2.71411815       0.00000000
Si       0.00167787      -2.71274112       2.71706917       0.00000000
