10
Lattice="16.28999089631971 0.0 0.0 0.0 16.28999089631971 0.0 0.0 0.0 34.31420841018396" Properties=species:S:1:pos:R:3:initial_magmoms:R:1 pbc="T T T"
Si      -1.35681039      -1.35562122      -1.35819144       0.00000000
Si       1.36000323      -1.35342207       1.35915224       0.00000000
Si       1.35832536       1.35931905      -1.35791693       0.00000000
Si      -1.35835794       1.36058967       1.36186306       0.00000000
Si      -2.71570590      -2.71288773      -0.00027451       0.00000000
Si       0.00161271      -2.71377716      -2.71559366       0.00000000
Si      -2.71443528       0.00197109      -2.71531914       0.00000000
Si      -2.71397916       2.71601541      -0.00054903       0.00000000
Si       2.71676475      -2.71333571      -0.00096080       0.00000000
Si       2.71541268       2.71590138      -0.00116668       0.00000000
