10
Lattice="16.28999089631971 0.0 0.0 0.0 16.28999089631971 0.0 0.0 0.0 34.31420841018396" Properties=species:S:1:pos:R:3:initial_magmoms:R:1 pbc="T T T"
Si      -1.65967407       0.58411053       1.51998303       0.00000000
Si       0.03759732       0.18723726      -2.35447073       0.00000000
Si      -0.05908383      -2.33026821       0.38881451       0.00000000
Si       2.04853266       0.91639395       0.83568870       0.00000000
Si       2.22549093      -2.71599912       0.20856188       0.00000000
Si       1.64634885       1.96147890      -2.49793851       0.00000000
Si      -3.42695988      -0.76579290       0.87744911       0.00000000
Si      -1.00279611      -0.49334265       3.51569850       0.00000000
Si       3.20929290      -1.00735731       1.54317944       0.00000000
Si      -0.81055782      -2.63044404       2.60383222       0.00000000
