10
Lattice="16.28999089631971 0.0 0.0 0.0 16.28999089631971 0.0 0.0 0.0 34.31420841018396" Properties=species:S:1:pos:R:3:initial_magmoms:R:1 pbc="T T T"
Si       2.28457476      -0.38573091      -0.18025264       0.00000000
Si      -0.75147399      -0.30017583       2.21501770       0.00000000
Si       0.05908383       2.33026821      -0.38881451       0.00000000
Si      -0.89096526      -1.91871765      -1.16692394       0.00000000
Si       2.04200037      -2.39765994       0.96443568       0.00000000
Si       1.33310844      -1.23113304       2.93647434       0.00000000
Si      -3.02959791      -0.53656002       1.56788569       0.00000000
Si      -1.60059024       2.91437874       1.13116851       0.00000000
Si      -2.90914965      -2.21480469      -0.03788291       0.00000000
Si       2.63031372      -0.51868989      -2.55294422       0.00000000
