10
Lattice="16.28999089631971 0.0 0.0 0.0 16.28999089631971 0.0 0.0 0.0 34.31420841018396" Properties=species:S:1:pos:R:3:initial_magmoms:R:1 pbc="T T T"
Si      -1.97754084      -0.85742415      -0.94549423       0.00000000
Si       0.44988093       1.72884141      -1.54942463       0.00000000
Si       1.42100928      -1.81661193      -0.70402501       0.00000000
Si      -1.34843733      -0.01427004       2.29686541       0.00000000
Si      -3.26184444      -0.80400924       1.01990158       0.00000000
Si       1.29248118       2.54676231       2.30418464       0.00000000
Si       1.07378793       0.55231245      -3.62550403       0.00000000
Si       3.18914447      -1.90314441       0.90644464       0.00000000
Si       2.32885098       2.91884220      -0.95863658       0.00000000
Si       0.05390361      -1.38091959       3.66891980       0.00000000
