10
Lattice="16.28999089631971 0.0 0.0 0.0 16.28999089631971 0.0 0.0 0.0 34.31420841018396" Properties=species:S:1:pos:R:3:initial_magmoms:R:1 pbc="T T T"
Si       1.45712421      -1.21129182       1.37887263       0.00000000
Si       1.91107831       0.75186495      -1.17546509       0.00000000
Si      -1.25064846       1.52441820       1.37205439       0.00000000
Si       1.03636980       0.37207989      -3.26282121       0.00000000
Si      -1.29248118      -2.54676231      -2.30418464       0.00000000
Si      -2.64091851      -2.56103235      -0.00731922       0.00000000
Si       0.11859120      -2.55383217       2.75089957       0.00000000
Si      -2.59908579       0.15892524       2.75244371       0.00000000
Si       2.76323102      -2.63337624      -0.05006789       0.00000000
Si      -2.64425796       2.85669585      -0.10685794       0.00000000
