10
Lattice="16.28999089631971 0.0 0.0 0.0 16.28999089631971 0.0 0.0 0.0 34.31420841018396" Properties=species:S:1:pos:R:3:initial_magmoms:R:1 pbc="T T T"
Si      -1.35171162       1.35267273       1.35740221       0.00000000
Si      -1.35607734      -1.35804843      -1.35630416       0.00000000
Si       1.35842310       1.35679410      -1.35726496       0.00000000
Si       1.35540945      -1.35883035       1.35925518       0.00000000
Si       2.71435383       2.71176372       0.00109806       0.00000000
Si      -2.71368594      -0.00034209      -2.71332892       0.00000000
Si      -2.71366965       2.71362078       0.00137257       0.00000000
Si       0.00087966       2.71459818      -2.71370637       0.00000000
Si       0.00105885      -2.71508688      -2.71398089       0.00000000
Si      -2.71378368      -2.71621089       0.00085786       0.00000000
