10
Lattice="16.28999089631971 0.0 0.0 0.0 16.28999089631971 0.0 0.0 0.0 34.31420841018396" Properties=species:S:1:pos:R:3:initial_magmoms:R:1 pbc="T T T"
Si       1.35583299       1.35601463       1.35764241       0.00000000
Si       1.35731538      -1.35696662      -1.35764241       0.00000000
Si      -1.35775195       1.35783748      -1.35781399       0.00000000
Si      -1.35993481      -1.35927980       1.35623553       0.00000000
Si      -2.71392654      -0.00235538       2.71281420       0.00000000
Si       0.00174303      -2.71407023       2.71394657       0.00000000
Si       0.00114030      -2.71447748      -2.71466717       0.00000000
Si       2.71484253      -2.71431458       0.00000000       0.00000000
Si      -2.71516410      -2.71421684      -0.00044608       0.00000000
Si      -0.00198738       2.71524734      -2.71456423       0.00000000
