10
Lattice="16.28999089631971 0.0 0.0 0.0 16.28999089631971 0.0 0.0 0.0 34.31420841018396" Properties=species:S:1:pos:R:3:initial_magmoms:R:1 pbc="T T T"
Si       0.49357071       2.25808722      -0.29393567       0.00000000
Si      -0.72099540       0.10324602       2.26295468       0.00000000
Si      -1.43759250      -0.14947704      -1.92773899       0.00000000
Si       1.56253747      -1.84261077      -0.03554954       0.00000000
Si      -3.04455213      -1.69536546      -1.17124753       0.00000000
Si      -2.32974693      -1.67099562       2.40642247       0.00000000
Si      -0.75015450       3.06989937      -2.09279043       0.00000000
Si       0.68162247      -3.40588062      -1.58957228       0.00000000
Si      -0.03554478      -0.57651939      -3.85551230       0.00000000
Si      -0.18806805       3.61018980       1.50327200       0.00000000
