10
Lattice="16.28999089631971 0.0 0.0 0.0 16.28999089631971 0.0 0.0 0.0 34.31420841018396" Properties=species:S:1:pos:R:3:initial_magmoms:R:1 pbc="T T T"
Si       1.87897005       1.19000079       0.59078806       0.00000000
Si      -0.44988093      -1.72884141       1.54942463       0.00000000
Si       0.62390700      -1.17652896      -2.07607940       0.00000000
Si      -1.80230931       1.72714725      -0.15129143       0.00000000
Si      -2.42742177      -2.58626556       0.60393041       0.00000000
Si      -3.08429973      -1.50881238      -1.39178507       0.00000000
Si       0.97112835      -3.54545334       0.84539963       0.00000000
Si       1.78466724      -3.10028022      -1.36858865       0.00000000
Si      -1.42462566      -2.09292291      -2.91176810       0.00000000
Si      -1.00818810       2.94042645      -2.33607830       0.00000000
