10
Lattice="16.28999089631971 0.0 0.0 0.0 16.28999089631971 0.0 0.0 0.0 34.31420841018396" Properties=species:S:1:pos:R:3:initial_magmoms:R:1 pbc="T T T"
Si       0.87470851       0.37978506       2.08735612       0.00000000
Si      -1.87897005      -1.19000079      -0.59078806       0.00000000
Si       0.73030418       1.57187097      -1.55203251       0.00000000
Si      -1.03636980      -0.37207989       3.26282121       0.00000000
Si       2.88219689      -1.24242201       1.93099884       0.00000000
Si      -1.25506305      -2.36652975      -2.66686745       0.00000000
Si      -3.68127936       0.53714646      -0.74207949       0.00000000
Si      -1.01108772       2.95005384      -2.25386141       0.00000000
Si       1.10861662       0.44804016      -3.66036729       0.00000000
Si      -2.32885098      -2.91884220       0.95863658       0.00000000
