10
Lattice="16.28999089631971 0.0 0.0 0.0 16.28999089631971 0.0 0.0 0.0 34.31420841018396" Properties=species:S:1:pos:R:3:initial_magmoms:R:1 pbc="T T T"
Si       1.35565380       1.35708732      -1.35705907       0.00000000
Si      -1.35674523       1.35707103       1.35757379       0.00000000
Si       1.35754344      -1.35780408       1.35644142       0.00000000
Si      -1.35669636      -1.35922131      -1.35726496       0.00000000
Si       2.71347417      -0.00283446       2.71480443       0.00000000
Si      -0.00087966      -2.71459818       2.71370637       0.00000000
Si       0.00338832       2.71414206      -2.71483874       0.00000000
Si      -2.71456560      -2.71494027       0.00037746       0.00000000
Si      -2.71454931      -0.00097740       2.71507894       0.00000000
Si       0.00115659       2.71508688       2.71501032       0.00000000
