10
Lattice="16.28999089631971 0.0 0.0 0.0 16.28999089631971 0.0 0.0 0.0 34.31420841018396" Properties=species:S:1:pos:R:3:initial_magmoms:R:1 pbc="T T T"
Si       1.51650126      -1.12591593      -1.50951719       0.00000000
Si       1.63838304       1.33628499       1.18397811       0.00000000
Si      -1.19166400       1.57242483      -1.49695818       0.00000000
Si      -0.90106506      -1.66236192       1.62289139       0.00000000
Si      -2.53983707      -2.58251886      -0.11138398       0.00000000
Si       2.78203878      -2.58330078      -0.13856085       0.00000000
Si       0.17544330      -2.48802057      -2.88315003       0.00000000
Si      -2.54546256       0.23154606      -2.88191472       0.00000000
Si       3.16641762      -0.12131163       2.29431788       0.00000000
Si      -2.50028238       3.02775714      -0.11680563       0.00000000
