10
Lattice="16.28999089631971 0.0 0.0 0.0 16.28999089631971 0.0 0.0 0.0 34.31420841018396" Properties=species:S:1:pos:R:3:initial_magmoms:R:1 pbc="T T T"
Si      -1.40424687      -1.59798384       1.04308389       0.00000000
Si      -0.76336569       2.17979748       0.66041162       0.00000000
Si       2.28221271      -0.10635741       0.82865428       0.00000000
Si       0.08167806      -1.18780164      -2.18766927       0.00000000
Si       1.87075989       1.05205707       2.86304189       0.00000000
Si       0.92067822       3.00136734       2.04402991       0.00000000
Si       0.90704349      -3.38535522      -1.45705073       0.00000000
Si      -0.62051868      -3.72920454       0.36369650       0.00000000
Si      -1.20907638      -1.31818680       3.37133855       0.00000000
Si      -3.61490413      -1.32271542       0.15262968       0.00000000
