10
Lattice="16.28999089631971 0.0 0.0 0.0 16.28999089631971 0.0 0.0 0.0 34.31420841018396" Properties=species:S:1:pos:R:3:initial_magmoms:R:1 pbc="T T T"
Si       0.04961934       1.91112651      -1.33338226       0.00000000
Si       2.00795427      -0.02578707       1.19938520       0.00000000
Si      -1.10811096       0.59396598       1.97625931       0.00000000
Si      -0.82196082      -1.98886239      -1.00231859       0.00000000
Si       0.06773382       2.71029762       2.02248057       0.00000000
Si       1.50434892      -1.82288358       2.54525783       0.00000000
Si       0.67337973       0.94442904      -3.39504968       0.00000000
Si       0.98285715       3.61378989      -0.00473536       0.00000000
Si      -2.59766367      -2.70021411       0.44577613       0.00000000
Si      -0.77471982      -1.66008132       3.35929425       0.00000000
