10
Lattice="16.28999089631971 0.0 0.0 0.0 16.28999089631971 0.0 0.0 0.0 34.31420841018396" Properties=species:S:1:pos:R:3:initial_magmoms:R:1 pbc="T T T"
Si       1.35399173      -1.35692442      -1.35657867       0.00000000
Si      -1.35801049      -1.34570061       1.36745628       0.00000000
Si      -1.35778243       1.36031178      -1.35613259       0.00000000
Si       1.34815665       1.36370825       1.36330426       0.00000000
Si      -0.18825817       2.48804405       2.77399647       0.00000000
Si       0.04370688      -2.63002050       2.76795717       0.00000000
Si      -0.00123755      -2.71186146      -2.71326029       0.00000000
Si       2.71392654       0.00235538      -2.71281420       0.00000000
Si       2.71566957      -2.71171485       0.00113237       0.00000000
Si      -2.71522813      -2.71308321       0.00452948       0.00000000
