10
Lattice="16.28999089631971 0.0 0.0 0.0 16.28999089631971 0.0 0.0 0.0 34.31420841018396" Properties=species:S:1:pos:R:3:initial_magmoms:R:1 pbc="T T T"
Si       1.24836949       1.37102571      -1.47321273       0.00000000
Si      -1.31373507       1.31046534       1.53693425       0.00000000
Si      -1.42074245      -1.31520573      -1.46521752       0.00000000
Si       1.85250043      -1.20387987       1.17577701       0.00000000
Si       1.06978222      -0.65943549       3.31403379       0.00000000
Si      -1.24040205      -0.05422941       3.60031739       0.00000000
Si       0.00482510       3.42590822       1.70383866       0.00000000
Si       3.11324869       2.23045842      -0.33295095       0.00000000
Si       2.58170599      -0.03689685      -2.87680190       0.00000000
Si      -2.97920221       2.48215847       0.15527188       0.00000000
