10
Lattice="16.28999089631971 0.0 0.0 0.0 16.28999089631971 0.0 0.0 0.0 34.31420841018396" Properties=species:S:1:pos:R:3:initial_magmoms:R:1 pbc="T T T"
Si      -0.63433816       1.10126916       1.97375437       0.00000000
Si       2.31018427      -0.60520608      -0.28628360       0.00000000
Si      -1.64573539      -1.74568527       0.22904747       0.00000000
Si      -0.07333302       1.36469475      -2.06338313       0.00000000
Si      -0.70306567      -3.31753995       1.69601501       0.00000000
Si       0.95280862      -2.21658030       2.93170466       0.00000000
Si       2.85541057      -1.99785447       1.52351739       0.00000000
Si       1.24040205       0.05422941      -3.60031739       0.00000000
Si      -2.96141353       1.42954591       1.95941102       0.00000000
Si      -0.07103173      -0.29253582       3.87977246       0.00000000
