10
Lattice="16.28999089631971 0.0 0.0 0.0 16.28999089631971 0.0 0.0 0.0 34.35334932831803" Properties=species:S:1:pos:R:3:initial_magmoms:R:1 pbc="T T T"
Si       0.08588088       2.32380175      -0.06949686       0.00000000
Si      -0.82644057      -0.64150020      -2.11187333       0.00000000
Si      -1.60686841      -0.63381132       1.62268136       0.00000000
Si       2.39318019       0.40537665      -0.07317267       0.00000000
Si       2.73419505      -1.93697874       0.39777765       0.00000000
Si       0.91937502      -2.69381214       1.94721763       0.00000000
Si       1.23243624      -0.71666226      -3.17823624       0.00000000
Si       0.10184508      -1.01131578       3.39971241       0.00000000
Si      -1.79704601       1.39558059      -2.74723888       0.00000000
Si       0.07798023       2.76474924      -2.35990465       0.00000000
