10
Lattice="16.28999089631971 0.0 0.0 0.0 16.28999089631971 0.0 0.0 0.0 34.35334932831803" Properties=species:S:1:pos:R:3:initial_magmoms:R:1 pbc="T T T"
Si       1.25490015      -1.47421472       1.31298575       0.00000000
Si       1.35902583       1.34542857      -1.37083682       0.00000000
Si      -1.35718506      -1.36925608      -1.36915350       0.00000000
Si      -1.38427533       1.33435137       1.48550836       0.00000000
Si      -0.78167565      -2.07130838       2.90729123       0.00000000
Si      -2.50675407      -0.22954402       2.84061134       0.00000000
Si       2.70572013       2.70469875       0.00930976       0.00000000
Si      -2.72267802       2.70147333       0.01439406       0.00000000
Si       0.00102627       2.69992578      -2.72875677       0.00000000
Si       2.71362078      -0.01427819      -2.72920336       0.00000000
