10
Lattice="16.28999089631971 0.0 0.0 0.0 16.28999089631971 0.0 0.0 0.0 34.35334932831803" Properties=species:S:1:pos:R:3:initial_magmoms:R:1 pbc="T T T"
Si      -1.01553489       1.98785241       0.64474402       0.00000000
Si       1.63049868      -0.39053646      -1.65785921       0.00000000
Si      -1.71115047      -1.00261692      -1.31638673       0.00000000
Si       0.98937315      -0.66852531       2.10321628       0.00000000
Si       1.19786886      -2.71303108      -1.78118780       0.00000000
Si       0.85569741       2.99045304       1.63704107       0.00000000
Si      -0.96791922      -3.23288245      -1.04289956       0.00000000
Si       0.61833582       0.87034212      -3.36948145       0.00000000
Si      -2.76190434       1.17685476       2.01850087       0.00000000
Si       2.22518142       1.33349940       2.60810774       0.00000000
