10
Lattice="16.28999089631971 0.0 0.0 0.0 16.28999089631971 0.0 0.0 0.0 34.35334932831803" Properties=species:S:1:pos:R:3:initial_magmoms:R:1 pbc="T T T"
Si       2.37571731      -0.14017545       0.06688601       0.00000000
Si      -0.40218381       0.52957161       2.36000771       0.00000000
Si      -0.43991145       1.77852591      -1.76548832       0.00000000
Si      -1.95703173      -2.18911536       0.13518051       0.00000000
Si      -1.41117012       0.15876234      -3.30132436       0.00000000
Si       1.19700549      -0.90842814       3.34017802       0.00000000
Si      -2.72072322       0.17332560       2.68079947       0.00000000
Si       2.98787922      -1.47782880       1.89929469       0.00000000
Si       2.62298322       1.78588899       2.16549894       0.00000000
Si      -3.33006696      -0.52043292      -1.89077505       0.00000000
