10
Lattice="16.28999089631971 0.0 0.0 0.0 16.28999089631971 0.0 0.0 0.0 34.35334932831803" Properties=species:S:1:pos:R:3:initial_magmoms:R:1 pbc="T T T"
Si      -1.93447008      -1.25429742      -0.26283762       0.00000000
Si       0.22592601       2.20794660       0.76329750       0.00000000
Si       0.81003654       0.11420919      -2.20459307       0.00000000
Si       1.01216286      -1.26087858       1.71162223       0.00000000
Si       2.71643895      -1.18161144      -1.68767794       0.00000000
Si       2.21718303       2.58965388      -0.45136891       0.00000000
Si       3.45427821       0.49366845      -0.21048309       0.00000000
Si      -0.61833582      -0.87034212       3.36948145       0.00000000
Si      -2.32948629      -1.87295904       2.05309472       0.00000000
Si      -1.94499342       3.05453790       0.36308075       0.00000000
