10
Lattice="16.28999089631971 0.0 0.0 0.0 16.28999089631971 0.0 0.0 0.0 34.35334932831803" Properties=species:S:1:pos:R:3:initial_magmoms:R:1 pbc="T T T"
Si      -1.55224152      -0.68445693      -1.81488846       0.00000000
Si      -0.19416051       0.33122457       2.47595033       0.00000000
Si       1.81019367      -1.77096735      -0.17722903       0.00000000
Si       0.96912468       2.01714183      -1.72560405       0.00000000
Si      -2.82345122      -2.16370296      -0.49650924       0.00000000
Si       0.83893500      -3.39073092      -1.71306507       0.00000000
Si      -0.33383097      -2.07692613      -3.28431944       0.00000000
Si       2.06663085       0.92898612       3.20530670       0.00000000
Si      -1.47763332       2.32368705       2.93831232       0.00000000
Si       3.55675860      -0.83864178      -1.72811185       0.00000000
