10
Lattice="16.28999089631971 0.0 0.0 0.0 16.28999089631971 0.0 0.0 0.0 34.35334932831803" Properties=species:S:1:pos:R:3:initial_magmoms:R:1 pbc="T T T"
Si       0.48311253      -1.48623444       1.71986704       0.00000000
Si      -2.01911292      -0.87293223      -0.87329698       0.00000000
Si       1.70258193      -0.27212445      -1.62233783       0.00000000
Si      -0.10257813       2.17644174       0.97412412       0.00000000
Si       0.86284872      -3.29185062       0.24576400       0.00000000
Si       1.76956641      -2.64572406      -1.85308941       0.00000000
Si      -2.64016917       0.67896720      -2.53431670       0.00000000
Si      -3.20144112      -1.63852965       1.07776823       0.00000000
Si       0.90556110       0.80542647      -3.56962417       0.00000000
Si       2.38071834      -0.66139029       2.92240671       0.00000000
