10
Lattice="16.28999089631971 0.0 0.0 0.0 16.28999089631971 0.0 0.0 0.0 34.35334932831803" Properties=species:S:1:pos:R:3:initial_magmoms:R:1 pbc="T T T"
Si       1.35601218      -1.35488817       1.36173318       0.00000000
Si      -1.35912357       1.35835108       1.36104611       0.00000000
Si       1.37236734       1.35954749      -1.36514103       0.00000000
Si      -1.36668213      -1.37253024      -1.36193930       0.00000000
Si      -2.57261454       0.07946262      -2.80654654       0.00000000
Si       2.71217097      -2.71309950       0.00072142       0.00000000
Si      -2.71521720      -2.71080261       0.00419111       0.00000000
Si       2.71378368       2.71404173       0.00346969       0.00000000
Si       2.71383255       0.00061902       2.71906912       0.00000000
Si      -0.00185706      -2.71428867       2.71872559       0.00000000
