10
Lattice="16.28999089631971 0.0 0.0 0.0 16.28999089631971 0.0 0.0 0.0 34.35334932831803" Properties=species:S:1:pos:R:3:initial_magmoms:R:1 pbc="T T T"
Si       1.37174832       1.33724284      -1.35188406       0.00000000
Si       1.35933534      -1.35629012       1.36001551       0.00000000
Si      -1.35524655       1.36011400       1.36080563       0.00000000
Si      -1.34947989      -1.34377254      -1.38975178       0.00000000
Si      -2.71574662       2.71384558       0.00559960       0.00000000
Si      -2.71372341       0.00133089       2.71752322       0.00000000
Si       0.00192222      -2.71428282       2.71779804       0.00000000
Si       2.71845891      -2.71464120      -0.00103060       0.00000000
Si      -2.71526607      -2.71809468       0.00130543       0.00000000
Si       2.71700910       0.00090735       2.71745451       0.00000000
