10
Lattice="16.28999089631971 0.0 0.0 0.0 16.28999089631971 0.0 0.0 0.0 34.35334932831803" Properties=species:S:1:pos:R:3:initial_magmoms:R:1 pbc="T T T"
Si       1.35935163       1.34895861      -1.39993412       0.00000000
Si      -1.35775521      -1.36593279      -1.39680796       0.00000000
Si       1.18048743      -1.48809150       1.52370931       0.00000000
Si      -1.40714649       1.36769211       1.52621710       0.00000000
Si       2.71117728       2.68236027      -0.04222029       0.00000000
Si      -2.72458395       2.69102655      -0.01260769       0.00000000
Si       2.69566920      -2.72849355      -0.00669891       0.00000000
Si      -2.71010214      -2.72637585      -0.03249829       0.00000000
Si       0.00011403       2.70560610      -2.75465921       0.00000000
Si       2.71428867      -0.00659745      -2.75548369       0.00000000
