10
Lattice="16.28999089631971 0.0 0.0 0.0 16.28999089631971 0.0 0.0 0.0 34.35334932831803" Properties=species:S:1:pos:R:3:initial_magmoms:R:1 pbc="T T T"
Si       2.03540292       0.76349587       1.04705632       0.00000000
Si      -0.62490069      -1.99663272      -1.35486250       0.00000000
Si      -1.72507842       1.84176436      -0.06667989       0.00000000
Si       2.03657580       0.59709366      -1.59430548       0.00000000
Si      -1.50995268      -0.25353756       2.23252236       0.00000000
Si      -1.94233815      -0.67329828      -2.89368729       0.00000000
Si       0.78167565       2.07130838      -2.90729123       0.00000000
Si      -3.33943371       0.60520608      -1.40893470       0.00000000
Si      -0.60259968       3.40565975      -1.42178286       0.00000000
Si       1.30085424       1.20618720       3.42740122       0.00000000
