10
Lattice="16.28999089631971 0.0 0.0 0.0 16.28999089631971 0.0 0.0 0.0 34.35334932831803" Properties=species:S:1:pos:R:3:initial_magmoms:R:1 pbc="T T T"
Si      -1.56170601      -1.43654994       1.07653151       0.00000000
Si       1.56682107      -0.50109669       1.75332722       0.00000000
Si       1.50995268       0.25353756      -2.23252236       0.00000000
Si      -0.35997642       2.95957439      -0.05950003       0.00000000
Si      -0.49813191      -0.46639899       2.95291250       0.00000000
Si      -0.21512574       2.09530192      -2.29920225       0.00000000
Si       2.81080692       1.45972476       1.19487886       0.00000000
Si      -0.27823320      -3.42901242       0.61416952       0.00000000
Si       1.98255816      -2.83125087       1.34352589       0.00000000
Si      -3.64764214      -0.70656246       0.02483749       0.00000000
