10
Lattice="16.28999089631971 0.0 0.0 0.0 16.28999089631971 0.0 0.0 0.0 34.35334932831803" Properties=species:S:1:pos:R:3:initial_magmoms:R:1 pbc="T T T"
Si       1.24398585       1.96082145      -0.55844836       0.00000000
Si      -2.06495298       0.03469770       1.19958528       0.00000000
Si       0.41573709      -2.33015418      -0.40980133       0.00000000
Si      -1.56682107       0.50109669      -1.75332722       0.00000000
Si      -3.12852708      -0.93545325      -0.67679571       0.00000000
Si       0.32065236      -0.49264218       3.53248818       0.00000000
Si      -1.84505427      -2.92791573      -1.13915770       0.00000000
Si      -1.75440042      -1.42302924       2.93123552       0.00000000
Si       1.97853453       1.51813012      -2.93879326       0.00000000
Si       0.66090159       1.89383046       3.41451871       0.00000000
