10
Lattice="16.28999089631971 0.0 0.0 0.0 16.28999089631971 0.0 0.0 0.0 34.35334932831803" Properties=species:S:1:pos:R:3:initial_magmoms:R:1 pbc="T T T"
Si      -1.36003581       1.35298936      -1.35960327       0.00000000
Si       1.35676152      -1.36279215      -1.35891620       0.00000000
Si      -1.36190916      -1.38600540       1.35359143       0.00000000
Si       1.36438524       1.36634064       1.37581806       0.00000000
Si       2.59685406      -0.14482143       2.75290719       0.00000000
Si       2.71692765       2.71036664      -0.00058401       0.00000000
Si      -2.71463076       2.71269611      -0.00123672       0.00000000
Si      -0.00058644       2.71166984      -2.71604602       0.00000000
Si       2.71490769      -0.00343825      -2.71645826       0.00000000
Si      -2.71595025      -0.00312298      -2.71611473       0.00000000
