10
Lattice="16.28999089631971 0.0 0.0 0.0 16.28999089631971 0.0 0.0 0.0 34.35334932831803" Properties=species:S:1:pos:R:3:initial_magmoms:R:1 pbc="T T T"
Si       2.30684319       0.29947536      -0.14122670       0.00000000
Si      -1.21386564       1.39227372      -1.42322570       0.00000000
Si      -0.84848094      -2.18084981       0.25552036       0.00000000
Si      -1.14751647       0.53646228       2.00493129       0.00000000
Si      -1.29397986      -1.80824376       2.51054417       0.00000000
Si       2.63627586      -1.67536949      -1.36389744       0.00000000
Si      -0.48120660       3.44903283      -0.44896417       0.00000000
Si      -3.46763601      -0.26656956       0.55652457       0.00000000
Si       3.13582500       0.75497634       2.03134903       0.00000000
Si      -3.05391888       1.83228291       1.48801616       0.00000000
