10
Lattice="16.28999089631971 0.0 0.0 0.0 16.28999089631971 0.0 0.0 0.0 34.35334932831803" Properties=species:S:1:pos:R:3:initial_magmoms:R:1 pbc="T T T"
Si      -2.16003771      -0.53986689       0.67257025       0.00000000
Si       0.68163876       2.21743552       0.27187256       0.00000000
Si      -0.08390979      -0.65066984      -2.27024236       0.00000000
Si       1.73045412      -1.29821430       0.95241279       0.00000000
Si      -0.88720227      -2.86194027      -1.80025392       0.00000000
Si       2.92661253       1.96630889      -0.47277106       0.00000000
Si       2.24547876      -0.81355779      -2.69004052       0.00000000
Si      -2.28120273      -2.86705533       0.11044608       0.00000000
Si       2.66826942      -2.33782581      -0.92413997       0.00000000
Si       3.55447800       0.25068681       1.13098160       0.00000000
