10
Lattice="16.28999089631971 0.0 0.0 0.0 16.28999089631971 0.0 0.0 0.0 34.35334932831803" Properties=species:S:1:pos:R:3:initial_magmoms:R:1 pbc="T T T"
Si      -1.35664749      -1.35679410      -1.35712982       0.00000000
Si      -1.35677781       1.35705474       1.35764512       0.00000000
Si       1.35760860      -1.35760860       1.35778254       0.00000000
Si       1.35812988       1.35808101      -1.35740465       0.00000000
Si      -2.71344159       0.00131949      -2.71432835       0.00000000
Si      -2.71489140       2.71404432       0.00061836       0.00000000
Si      -2.71443528      -0.00208512       2.71467189       0.00000000
Si       0.00117288       2.71243161      -2.71704227       0.00000000
Si      -2.71441899      -2.71526770      -0.00013741       0.00000000
Si       2.71518462       2.71484253       0.00000000       0.00000000
