10
Lattice="16.28999089631971 0.0 0.0 0.0 16.28999089631971 0.0 0.0 0.0 34.35334932831803" Properties=species:S:1:pos:R:3:initial_magmoms:R:1 pbc="T T T"
Si       0.26085177       0.87806358      -2.11791952       0.00000000
Si       0.04305447       2.03398569       1.15131879       0.00000000
Si       1.76055804      -1.34332227       0.80314740       0.00000000
Si      -2.18126358      -0.87648345      -0.19581420       0.00000000
Si       0.57692664       1.31958774       3.30170225       0.00000000
Si       2.26041669      -0.32089671       2.90643239       0.00000000
Si      -0.47698749      -0.79721631      -3.59511437       0.00000000
Si      -3.19342644       0.38439513      -1.90743643       0.00000000
Si       1.07891928      -3.56075779       0.53127484       0.00000000
Si       1.97079678       3.21111738       0.54968825       0.00000000
