10
Lattice="16.28999089631971 0.0 0.0 0.0 16.28999089631971 0.0 0.0 0.0 34.35334932831803" Properties=species:S:1:pos:R:3:initial_magmoms:R:1 pbc="T T T"
Si       0.53387217      -0.71439795       2.15038346       0.00000000
Si       1.92774231       1.17713169      -0.60163054       0.00000000
Si      -0.04305447      -2.03398569      -1.15131879       0.00000000
Si      -2.09240163       1.11664692      -0.15108611       0.00000000
Si       0.21779730      -1.15592211      -3.26923832       0.00000000
Si      -1.62963531      -1.18643328       2.91883396       0.00000000
Si      -2.99911932       0.47052036       1.94776729       0.00000000
Si       2.21736222      -2.35488240       1.75511360       0.00000000
Si       3.20183208       1.22262966       1.34531226       0.00000000
Si       1.63090593       1.16418114       3.08905490       0.00000000
