10
Lattice="16.28999089631971 0.0 0.0 0.0 16.28999089631971 0.0 0.0 0.0 34.35334932831803" Properties=species:S:1:pos:R:3:initial_magmoms:R:1 pbc="T T T"
Si      -0.53387217       0.71439795      -2.15038346       0.00000000
Si      -2.16350748      -0.47203533       0.76845050       0.00000000
Si       1.09703376       1.87857909       0.93867144       0.00000000
Si       1.68349005      -1.64048445      -0.39526986       0.00000000
Si       2.66795991       1.93702761      -0.80507119       0.00000000
Si      -0.57692664      -1.31958774      -3.30170225       0.00000000
Si       1.39387014       1.89152964      -2.75201400       0.00000000
Si      -1.88146242      -0.11942199       3.09338342       0.00000000
Si       3.57850575      -0.21196548      -0.86989600       0.00000000
Si      -3.53299149       1.18491831      -0.20261617       0.00000000
