10
Lattice="16.28999089631971 0.0 0.0 0.0 16.28999089631971 0.0 0.0 0.0 34.35334932831803" Properties=species:S:1:pos:R:3:initial_magmoms:R:1 pbc="T T T"
Si      -1.44118330      -1.38557853      -1.23300045       0.00000000
Si       1.16719642      -1.51381341       1.40583259       0.00000000
Si      -1.54601540       1.21992552       1.39894131       0.00000000
Si       2.08274329       0.11039733      -1.42754534       0.00000000
Si       2.14529689       2.20662711       0.04618467       0.00000000
Si       1.22540059      -1.81439649      -2.71875105       0.00000000
Si       2.51582923      -0.15495048       2.77543269       0.00000000
Si      -0.20644806       2.56890042       2.77721907       0.00000000
Si      -2.89333762       2.61197118      -0.01169389       0.00000000
Si       2.72041534      -2.79937134       0.03756197       0.00000000
