10
Lattice="16.28999089631971 0.0 0.0 0.0 16.28999089631971 0.0 0.0 0.0 34.35334932831803" Properties=species:S:1:pos:R:3:initial_magmoms:R:1 pbc="T T T"
Si      -1.35722253      -1.35835794       1.35585875       0.00000000
Si       1.35713619       1.35943308       1.35589310       0.00000000
Si      -1.35734470       1.35715248      -1.35816042       0.00000000
Si       1.35782037      -1.35736425      -1.35774818       0.00000000
Si      -0.00001629       2.71181259       2.71295422       0.00000000
Si      -0.00195480      -2.71526607       2.71326340       0.00000000
Si       0.00071676      -2.71353933      -2.71515283       0.00000000
Si      -2.71292750      -0.00001629      -2.71601167       0.00000000
Si      -2.71461208       2.71438641      -0.00096189       0.00000000
Si       2.71466334      -0.00127062      -2.71439706       0.00000000
