10
Lattice="16.28999089631971 0.0 0.0 0.0 16.28999089631971 0.0 0.0 0.0 34.35334932831803" Properties=species:S:1:pos:R:3:initial_magmoms:R:1 pbc="T T T"
Si      -1.49595957       0.74249820      -1.60818424       0.00000000
Si      -0.81142119      -2.05907229       0.72361935       0.00000000
Si      -0.05952366       1.49385816       1.82079724       0.00000000
Si       2.15959788       0.03758103      -1.09508233       0.00000000
Si      -0.50497371       2.84830650      -1.71605382       0.00000000
Si       0.17370027       3.38380767       0.49565040       0.00000000
Si      -0.30017583      -0.18800289      -3.55186348       0.00000000
Si       0.73974519      -2.52519435       2.49934497       0.00000000
Si      -3.61787868       0.63351810       0.17516783       0.00000000
Si       3.50370207      -1.18079694       0.37462348       0.00000000
