10
Lattice="16.28999089631971 0.0 0.0 0.0 16.28999089631971 0.0 0.0 0.0 34.35334932831803" Properties=species:S:1:pos:R:3:initial_magmoms:R:1 pbc="T T T"
Si      -1.35615879       1.35821133       1.36101175       0.00000000
Si       1.36894644       1.35037584      -1.35649085       0.00000000
Si       1.35954711      -1.36058967       1.36059951       0.00000000
Si      -1.35402480      -1.36713825      -1.37116317       0.00000000
Si      -0.00221544       2.61938313      -2.77033122       0.00000000
Si      -2.71217097       2.71309950      -0.00072142       0.00000000
Si      -2.71231758      -2.71668330       0.00140849       0.00000000
Si      -2.71402803      -0.00118917       2.71800416       0.00000000
Si       0.00166158       2.71371852       2.71834770       0.00000000
Si       2.71570590      -2.71735119       0.00525607       0.00000000
