10
Lattice="16.28999089631971 0.0 0.0 0.0 16.28999089631971 0.0 0.0 0.0 34.35334932831803" Properties=species:S:1:pos:R:3:initial_magmoms:R:1 pbc="T T T"
Si      -1.53784116       1.79689681      -0.35930188       0.00000000
Si      -0.72430227      -1.84384881      -1.38430334       0.00000000
Si       1.96165809       0.85639788      -1.35579004       0.00000000
Si      -1.90501776      -0.57282156       1.85302070       0.00000000
Si      -1.99710513      -0.38478609      -2.75510580       0.00000000
Si       0.72918927       2.36755995      -2.73287917       0.00000000
Si      -3.45512529       1.06067434       1.21525041       0.00000000
Si      -3.45395241       0.89427213      -1.42611139       0.00000000
Si       1.95584256      -1.43573544       3.02206583       0.00000000
Si      -1.70021988      -3.60913095       0.01721104       0.00000000
