10
Lattice="16.28999089631971 0.0 0.0 0.0 16.28999089631971 0.0 0.0 0.0 34.35334932831803" Properties=species:S:1:pos:R:3:initial_magmoms:R:1 pbc="T T T"
Si       1.49595957      -0.74249820       1.60818424       0.00000000
Si       0.99098586       2.10580830      -0.10786958       0.00000000
Si       1.19578374      -0.93050109      -1.94367924       0.00000000
Si      -2.12191911      -0.10898010       1.78335207       0.00000000
Si       0.68453838      -2.80157049       2.33180360       0.00000000
Si      -0.63179136      -1.87660800      -3.15006648       0.00000000
Si       3.65555745      -0.70491717       0.51310191       0.00000000
Si       1.66965984       2.64130947       2.10383464       0.00000000
Si       1.43643591       0.75135996       3.42898148       0.00000000
Si      -0.55912167       3.73930420      -0.74563986       0.00000000
