10
Lattice="16.28999089631971 0.0 0.0 0.0 16.28999089631971 0.0 0.0 0.0 34.35334932831803" Properties=species:S:1:pos:R:3:initial_magmoms:R:1 pbc="T T T"
Si       0.80803287      -0.71014626      -2.04886925       0.00000000
Si       1.45911159       1.32796799       1.37299562       0.00000000
Si      -1.30165245      -1.42446276       1.44497967       0.00000000
Si      -0.88687647       1.92304169      -1.24039708       0.00000000
Si      -2.30931927       0.69031386      -2.60041258       0.00000000
Si       2.55225204      -2.20208220      -1.83797392       0.00000000
Si      -2.63924064       0.02880110       2.84944844       0.00000000
Si       0.06950943      -2.69347005       2.85882004       0.00000000
Si       0.05934447       2.74348754       2.82455942       0.00000000
Si       2.77218333       0.01954800       2.84456339       0.00000000
