10
Lattice="16.28999089631971 0.0 0.0 0.0 16.28999089631971 0.0 0.0 0.0 34.35334932831803" Properties=species:S:1:pos:R:3:initial_magmoms:R:1 pbc="T T T"
Si      -1.35360126       1.35519768       1.35891620       0.00000000
Si      -1.35562122      -1.35860721      -1.35695806       0.00000000
Si       1.35894752       1.35632169      -1.35671758       0.00000000
Si       1.35883027      -1.35626372       1.36358826       0.00000000
Si      -2.71210581       2.71334385       0.00030918       0.00000000
Si      -2.71329498      -0.00158013      -2.71415659       0.00000000
Si       0.00169416       2.71397916      -2.71443141       0.00000000
Si       2.71665302       2.71322982      -0.00010306       0.00000000
Si       0.00136836      -2.71600631      -2.71443141       0.00000000
Si       2.71611545      -0.00073468      -2.71439706       0.00000000
