10
Lattice="16.28999089631971 0.0 0.0 0.0 16.28999089631971 0.0 0.0 0.0 34.35334932831803" Properties=species:S:1:pos:R:3:initial_magmoms:R:1 pbc="T T T"
Si      -0.32943267       1.97484484       1.22267074       0.00000000
Si       2.04817428       0.37625828      -1.09298677       0.00000000
Si      -0.23007996      -2.09067393       1.07419548       0.00000000
Si      -2.63627586       1.67536949       1.36389744       0.00000000
Si       0.31912110       3.57869308      -0.52179331       0.00000000
Si      -2.49725700      -2.45899083       0.95316856       0.00000000
Si       3.55584296      -1.02460679       0.16269755       0.00000000
Si      -3.48475680      -0.50548033       1.61941779       0.00000000
Si       2.60653032       2.74513378      -0.95000805       0.00000000
Si       0.68492934      -3.85740588      -0.08949053       0.00000000
