10
Lattice="16.28999089631971 0.0 0.0 0.0 16.28999089631971 0.0 0.0 0.0 34.35334932831803" Properties=species:S:1:pos:R:3:initial_magmoms:R:1 pbc="T T T"
Si       1.35977517      -1.35624024       1.36090869       0.00000000
Si      -1.35835794       1.36068741       1.36207671       0.00000000
Si      -1.35865116      -1.36529748      -1.37426872       0.00000000
Si       1.37162690       1.37068947      -1.37192238       0.00000000
Si       0.10925703      -2.72132595      -2.70413571       0.00000000
Si      -2.71474479      -2.71298547       0.00030918       0.00000000
Si       2.71291935      -2.71603170       0.00656149       0.00000000
Si      -2.71498914       2.71502172       0.00590878       0.00000000
Si       2.71119424       2.71966437       0.00635537       0.00000000
Si       0.00052128      -2.71383255       2.71845076       0.00000000
