10
Lattice="16.28999089631971 0.0 0.0 0.0 16.28999089631971 0.0 0.0 0.0 34.35334932831803" Properties=species:S:1:pos:R:3:initial_magmoms:R:1 pbc="T T T"
Si      -1.35764118      -1.35653346      -1.35761077       0.00000000
Si      -1.35741312       1.35739683       1.35767948       0.00000000
Si       1.35725336      -1.35765747       1.35771383       0.00000000
Si       1.35925389       1.35759231      -1.35754206       0.00000000
Si       2.71239807      -0.00219915      -2.71188926       0.00000000
Si      -0.00169416      -2.71397916       2.71443141       0.00000000
Si      -2.71379997      -0.00063531       2.71474059       0.00000000
Si       2.71442129      -2.71471384       0.00003435       0.00000000
Si       2.71495886      -0.00074934       2.71432835       0.00000000
Si       2.71483668       2.71476108       0.00030918       0.00000000
