10
Lattice="16.28999089631971 0.0 0.0 0.0 16.28999089631971 0.0 0.0 0.0 34.35334932831803" Properties=species:S:1:pos:R:3:initial_magmoms:R:1 pbc="T T T"
Si      -1.35663120       1.35433431      -1.35616793       0.00000000
Si       1.35842310       1.35640314       1.35692370       0.00000000
Si      -1.35635427      -1.35954711       1.35647711       0.00000000
Si       1.35835794      -1.36068741      -1.36207671       0.00000000
Si      -2.71278999       2.71109583      -0.00082448       0.00000000
Si       0.00127062       2.71295289       2.71391611       0.00000000
Si      -2.71379997      -0.00239463       2.71408788       0.00000000
Si      -2.71340901      -2.71630863      -0.00092754       0.00000000
Si       2.71644853      -0.00252495       2.71388176       0.00000000
Si      -2.70943425       0.01299942      -2.72137079       0.00000000
