10
Lattice="16.28999089631971 0.0 0.0 0.0 16.28999089631971 0.0 0.0 0.0 34.35334932831803" Properties=species:S:1:pos:R:3:initial_magmoms:R:1 pbc="T T T"
Si       0.81852363       2.15746389      -0.44442953       0.00000000
Si      -2.14633782       0.54216378       0.80139538       0.00000000
Si       1.53717557      -0.70995078       1.78740576       0.00000000
Si      -0.06861348      -1.50309459      -1.98026558       0.00000000
Si      -2.01479607      -0.96352092       2.55317670       0.00000000
Si       2.42859858       1.31365818      -1.97301701       0.00000000
Si       0.96326796       0.10730223      -3.38978429       0.00000000
Si       0.42510384       3.18311487       1.82509141       0.00000000
Si      -1.84972950       2.59203222       1.92825458       0.00000000
Si       0.89704340      -2.97965277       2.09586466       0.00000000
