10
Lattice="16.28999089631971 0.0 0.0 0.0 16.28999089631971 0.0 0.0 0.0 34.35334932831803" Properties=species:S:1:pos:R:3:initial_magmoms:R:1 pbc="T T T"
Si       1.52422924      -1.44101340       1.24087802       0.00000000
Si      -0.68391855      -1.83879891      -1.55098588       0.00000000
Si      -1.63445782      -0.40200462       1.88792372       0.00000000
Si       1.94174194       0.94656303      -1.39189543       0.00000000
Si      -1.62712732       2.02413024      -0.23844673       0.00000000
Si      -2.08627726      -0.50658642      -2.99533891       0.00000000
Si       0.65144524       2.21363181      -3.01835567       0.00000000
Si      -3.46118584       0.89536356      -1.51580803       0.00000000
Si       2.61357412       2.93465979      -0.03720470       0.00000000
Si      -0.66147044       0.54757206       3.83768350       0.00000000
