10
Lattice="16.28999089631971 0.0 0.0 0.0 16.28999089631971 0.0 0.0 0.0 34.35334932831803" Properties=species:S:1:pos:R:3:initial_magmoms:R:1 pbc="T T T"
Si      -1.81985364      -0.11497482      -1.44297889       0.00000000
Si       0.62400474      -2.24324703       0.27681944       0.00000000
Si      -0.76313763       1.34817669       1.78592857       0.00000000
Si       2.03371758       1.03347018      -0.73433761       0.00000000
Si       1.50471937      -0.25068681       3.21777697       0.00000000
Si       0.54938025      -2.30674545       2.69192996       0.00000000
Si      -2.73039948       2.03401827      -1.37815409       0.00000000
Si      -0.26259480       3.54097359       0.94124794       0.00000000
Si       3.74103827      -0.53168931      -0.39423926       0.00000000
Si       2.68971425      -2.57142537      -0.90215381       0.00000000
