10
Lattice="16.28999089631971 0.0 0.0 0.0 16.28999089631971 0.0 0.0 0.0 34.35334932831803" Properties=species:S:1:pos:R:3:initial_magmoms:R:1 pbc="T T T"
Si      -1.42087896      -1.26351756       1.36186170       0.00000000
Si      -1.39841505       1.04800086      -1.55448993       0.00000000
Si       1.35086454       1.49468895       1.32282253       0.00000000
Si       1.04027940      -1.79374077      -1.33047161       0.00000000
Si      -1.43839071      -0.95089617      -3.04518565       0.00000000
Si      -2.46280365       2.81458620      -0.16242273       0.00000000
Si       2.80301885      -2.50286076       0.10151596       0.00000000
Si      -0.03209130      -2.63334366       2.73111139       0.00000000
Si       2.69818676       0.10264329       2.73345772       0.00000000
Si      -2.74123233       0.10564065       2.74608602       0.00000000
