10
Lattice="16.28999089631971 0.0 0.0 0.0 16.28999089631971 0.0 0.0 0.0 34.35334932831803" Properties=species:S:1:pos:R:3:initial_magmoms:R:1 pbc="T T T"
Si      -1.29029669       1.26706878      -1.62646023       0.00000000
Si       0.67183218       1.98809676       1.35469073       0.00000000
Si      -1.94174194      -0.94656303       1.39189543       0.00000000
Si       1.40481702      -1.44541170      -1.60643222       0.00000000
Si       2.63702520      -0.58143897       1.18611876       0.00000000
Si      -0.41751270      -2.38757643       2.63277346       0.00000000
Si      -2.53698782       2.68796403      -0.25607001       0.00000000
Si       2.59072902       2.66729202      -0.05585858       0.00000000
Si      -2.62566048      -2.78536194      -0.15909045       0.00000000
Si      -3.56886926       1.07756721       1.15344870       0.00000000
