10
Lattice="16.28999089631971 0.0 0.0 0.0 16.28999089631971 0.0 0.0 0.0 34.35334932831803" Properties=species:S:1:pos:R:3:initial_magmoms:R:1 pbc="T T T"
Si       1.35687555       1.35795069      -1.35778254       0.00000000
Si      -1.35819504      -1.35739683      -1.35761077       0.00000000
Si       1.35720135      -1.36093176       1.35867573       0.00000000
Si      -1.36044306       1.36042677       1.36132093       0.00000000
Si       2.71412577      -2.71368594      -0.00116801       0.00000000
Si       2.71402803       0.00140094      -2.71477495       0.00000000
Si       2.71262709       2.71639008      -0.00089319       0.00000000
Si      -0.00074934      -2.71454931      -2.71522154       0.00000000
Si      -2.71551042       0.00052128      -2.71518719       0.00000000
Si      -0.00089595       2.71555929      -2.71529025       0.00000000
