10
Lattice="16.28999089631971 0.0 0.0 0.0 16.28999089631971 0.0 0.0 0.0 34.35334932831803" Properties=species:S:1:pos:R:3:initial_magmoms:R:1 pbc="T T T"
Si      -0.81852363      -2.15746389       0.44442953       0.00000000
Si       1.61007495      -0.84380571      -1.52858749       0.00000000
Si      -0.39341979       1.02565098       2.26952094       0.00000000
Si      -1.28477601       1.70548155      -1.37925339       0.00000000
Si       0.14474433      -2.05016166      -2.94535476       0.00000000
Si      -2.66825313       0.43456833       2.37268410       0.00000000
Si      -2.96486145      -1.61530011       1.24582491       0.00000000
Si       0.71865194      -2.86741467       2.23183529       0.00000000
Si      -2.76744294       0.50420808      -2.79646726       0.00000000
Si      -0.88713711      -3.66055848      -1.53583605       0.00000000
