10
Lattice="16.28999089631971 0.0 0.0 0.0 16.28999089631971 0.0 0.0 0.0 34.35334932831803" Properties=species:S:1:pos:R:3:initial_magmoms:R:1 pbc="T T T"
Si      -1.34410419       1.21837797      -1.46970581       0.00000000
Si      -0.90342711       0.11272680       2.15876568       0.00000000
Si       2.27483334       0.59108265      -0.10316317       0.00000000
Si      -0.29660832      -2.04986844      -1.12685919       0.00000000
Si      -0.14781546       3.16618956      -0.92163217       0.00000000
Si       2.05205130       2.93391045       0.04709847       0.00000000
Si       2.66825313      -0.43456833      -2.37268410       0.00000000
Si      -0.16506657      -3.55555314       0.62492213       0.00000000
Si      -3.50370207       1.18079694      -0.37462348       0.00000000
Si       1.84972950      -2.59203222      -1.92825458       0.00000000
