10
Lattice="16.28999089631971 0.0 0.0 0.0 16.28999089631971 0.0 0.0 0.0 34.35334932831803" Properties=species:S:1:pos:R:3:initial_magmoms:R:1 pbc="T T T"
Si       0.13154175      -1.50568470       1.75178132       0.00000000
Si       2.14633782      -0.54216378      -0.80139538       0.00000000
Si       0.29660832       2.04986844       1.12685919       0.00000000
Si      -1.49332059       1.38929265      -2.41655336       0.00000000
Si      -1.04749587       3.26824641      -0.34284662       0.00000000
Si       2.96486145       1.61530011      -1.24582491       0.00000000
Si      -0.21701538      -3.63783393      -0.22707577       0.00000000
Si      -1.91303244      -1.53956790       2.76809138       0.00000000
Si       2.57144166       2.64095109       1.02369603       0.00000000
Si      -0.60681879       2.16259524       3.28562487       0.00000000
