10
Lattice="16.28999089631971 0.0 0.0 0.0 16.28999089631971 0.0 0.0 0.0 34.35334932831803" Properties=species:S:1:pos:R:3:initial_magmoms:R:1 pbc="T T T"
Si       1.34410419      -1.21837797       1.46970581       0.00000000
Si       1.19628873       1.94781159       0.54807364       0.00000000
Si      -2.15959788      -0.03758103       1.09508233       0.00000000
Si      -0.44582472      -1.87895376      -2.07370674       0.00000000
Si       1.04749587      -3.26824641       0.34284662       0.00000000
Si      -2.45977371      -0.22558392      -2.45678115       0.00000000
Si       2.72758131       0.05253525      -2.28223168       0.00000000
Si      -3.65555745       0.70491717      -0.51310191       0.00000000
Si       0.44067708      -1.10565117       3.62847149       0.00000000
Si       3.61893753      -0.62729532       1.36654265       0.00000000
