10
Lattice="16.28999089631971 0.0 0.0 0.0 16.28999089631971 0.0 0.0 0.0 34.35334932831803" Properties=species:S:1:pos:R:3:initial_magmoms:R:1 pbc="T T T"
Si       2.05394615      -1.12886442       0.20381854       0.00000000
Si      -1.06808840      -0.07923456       2.11623621       0.00000000
Si      -0.97298738      -0.94957668      -1.94975978       0.00000000
Si       0.64013217       2.26970199      -0.30845890       0.00000000
Si      -1.30935959       2.22107634       2.37264975       0.00000000
Si      -2.91183947       2.01613185       0.45731204       0.00000000
Si      -3.26039660      -0.11601738      -1.52154505       0.00000000
Si       2.63631365      -0.41330988       2.47900778       0.00000000
Si       0.58546293      -0.87506622       3.53743506       0.00000000
Si       0.81608697       3.06268290       1.90798609       0.00000000
