10
Lattice="16.28999089631971 0.0 0.0 0.0 16.28999089631971 0.0 0.0 0.0 34.35334932831803" Properties=species:S:1:pos:R:3:initial_magmoms:R:1 pbc="T T T"
Si      -1.34498385      -1.33460712      -1.37001234       0.00000000
Si      -1.46596968       1.23893595       1.38560877       0.00000000
Si       1.36653544       1.38266262      -1.36321037       0.00000000
Si       1.30846167      -1.38179925       1.47114865       0.00000000
Si       2.02650599       0.46167489       2.79437170       0.00000000
Si       0.34591815       2.30067484       2.59639324       0.00000000
Si      -2.68713324      -2.70417258       0.00175202       0.00000000
Si       0.00754227      -2.69117316      -2.72679863       0.00000000
Si       2.73877973      -2.68517844       0.01992495       0.00000000
Si      -2.70606222       0.02096523      -2.72621462       0.00000000
