10
Lattice="16.28999089631971 0.0 0.0 0.0 16.28999089631971 0.0 0.0 0.0 34.35334932831803" Properties=species:S:1:pos:R:3:initial_magmoms:R:1 pbc="T T T"
Si       1.46596968      -1.23893595      -1.38560877       0.00000000
Si      -1.23246882       1.51116207      -1.37708913       0.00000000
Si       1.81188783       1.06173889       1.21078447       0.00000000
Si      -1.96165809      -0.85639788       1.35579004       0.00000000
Si      -3.49949925       0.94049893       0.99648816       0.00000000
Si       0.12098583      -2.57354307      -2.75562110       0.00000000
Si      -2.59685406       0.14482143      -2.75290719       0.00000000
Si      -2.68596036      -2.70024669      -0.02851330       0.00000000
Si       2.77443135      -2.62073520       0.08553989       0.00000000
Si       3.49247567      -0.77726106       1.40876294       0.00000000
