10
Lattice="16.28999089631971 0.0 0.0 0.0 16.28999089631971 0.0 0.0 0.0 34.35334932831803" Properties=species:S:1:pos:R:3:initial_magmoms:R:1 pbc="T T T"
Si       0.61149402       1.98998640       1.09759012       0.00000000
Si      -2.25649080       0.59541579      -0.36984837       0.00000000
Si       0.31143222      -1.98715194       1.28505646       0.00000000
Si       1.19010246      -0.51432417      -2.00737038       0.00000000
Si       0.80050689      -2.82600549      -2.30954261       0.00000000
Si       1.90257167       3.19374802      -0.44254009       0.00000000
Si       3.51151217      -0.27929205      -1.32411624       0.00000000
Si       1.50808652      -3.48102639      -0.13263836       0.00000000
Si      -1.37028222       3.18392841       1.68527320       0.00000000
Si      -1.81174122      -2.92244229       1.77538209       0.00000000
