10
Lattice="16.28999089631971 0.0 0.0 0.0 16.28999089631971 0.0 0.0 0.0 34.35334932831803" Properties=species:S:1:pos:R:3:initial_magmoms:R:1 pbc="T T T"
Si       1.29107765       1.20376162      -1.54013022       0.00000000
Si      -0.61149402      -1.98998640      -1.09759012       0.00000000
Si       1.18017045      -0.26484282       2.03557450       0.00000000
Si      -1.98177624       1.19394201       0.58768308       0.00000000
Si      -2.86798482      -1.39457061      -1.46743849       0.00000000
Si       1.85837039       3.20385923      -0.42165325       0.00000000
Si      -1.76166576       1.84758641       2.84009604       0.00000000
Si      -3.80580012      -0.35495910       0.40911427       0.00000000
Si      -0.31143222       0.23192026       3.84050048       0.00000000
Si       3.25154006       0.01703934      -2.17948076       0.00000000
