10
Lattice="16.28999089631971 0.0 0.0 0.0 16.28999089631971 0.0 0.0 0.0 34.35334932831803" Properties=species:S:1:pos:R:3:initial_magmoms:R:1 pbc="T T T"
Si       0.98784189       1.08817200      -1.87236164       0.00000000
Si      -0.26023275      -2.40598413      -0.09004018       0.00000000
Si       1.36870209       0.76059639       1.85078773       0.00000000
Si      -2.08045943       1.07000865      -0.66106187       0.00000000
Si      -2.25641424       0.27702774      -2.87750685       0.00000000
Si       0.25448238       3.36512304      -1.76318664       0.00000000
Si      -2.31108348      -2.86774047       0.96838711       0.00000000
Si      -0.06441066       0.16092891      -3.83253050       0.00000000
Si       1.48543623       3.08824191       1.96659293       0.00000000
Si       1.37922543      -3.54823893       1.22486935       0.00000000
