10
Lattice="16.28999089631971 0.0 0.0 0.0 16.28999089631971 0.0 0.0 0.0 34.35334932831803" Properties=species:S:1:pos:R:3:initial_magmoms:R:1 pbc="T T T"
Si      -1.70732069       1.56515949      -0.34009835       0.00000000
Si      -1.05132402      -2.03973606      -0.50791455       0.00000000
Si       0.84043368       0.29484900       2.17638896       0.00000000
Si       1.74636945       0.81099765      -1.37375685       0.00000000
Si      -0.44668809       3.46691925       0.45054443       0.00000000
Si       2.28936402      -1.74785184       2.09930000       0.00000000
Si       2.76190434      -1.17685476      -2.01850087       0.00000000
Si      -3.11703353      -1.71155772       0.67105870       0.00000000
Si       1.23253398       2.71451673       2.06322896       0.00000000
Si      -1.66029798       1.82193876      -2.68114300       0.00000000
