10
Lattice="16.28999089631971 0.0 0.0 0.0 16.28999089631971 0.0 0.0 0.0 34.35334932831803" Properties=species:S:1:pos:R:3:initial_magmoms:R:1 pbc="T T T"
Si       1.70732069      -1.56515949       0.34009835       0.00000000
Si       0.04702271       0.25677927      -2.34104465       0.00000000
Si      -2.03371758      -1.03347018       0.73433761       0.00000000
Si       1.26063260       1.90175976       0.79064278       0.00000000
Si       2.35906730       0.72198909      -2.51624683       0.00000000
Si       0.65599667      -3.60489555      -0.16781621       0.00000000
Si      -1.52341704       1.99313037      -2.68176136       0.00000000
Si       3.45369014      -0.75416184      -1.03365851       0.00000000
Si      -1.40971284      -3.27671721       1.01115705       0.00000000
Si      -2.79685521       0.31470651       2.52026618       0.00000000
