10
Lattice="16.28999089631971 0.0 0.0 0.0 16.28999089631971 0.0 0.0 0.0 34.35334932831803" Properties=species:S:1:pos:R:3:initial_magmoms:R:1 pbc="T T T"
Si      -0.84043368      -0.29484900      -2.17638896       0.00000000
Si      -0.94131765      -0.29590785       2.23022068       0.00000000
Si       0.39210030       2.41966773      -0.11316000       0.00000000
Si       1.44893034      -2.04270084      -0.07708896       0.00000000
Si      -3.07675257      -0.01384650       1.43562727       0.00000000
Si       2.88763056      -1.24879140       1.85752099       0.00000000
Si       0.90593577       0.51614865      -3.55014581       0.00000000
Si      -2.54775437       1.27031049      -2.51648730       0.00000000
Si       1.28511810       2.93979114       2.05725147       0.00000000
Si      -1.28712177       3.17207025      -1.72584453       0.00000000
