10
Lattice="16.28999089631971 0.0 0.0 0.0 16.28999089631971 0.0 0.0 0.0 34.35334932831803" Properties=species:S:1:pos:R:3:initial_magmoms:R:1 pbc="T T T"
Si       1.27970982       1.19430135      -1.59259266       0.00000000
Si       1.71607005      -0.99409725       1.35992619       0.00000000
Si      -1.00216080       1.70595396       1.36716788       0.00000000
Si      -0.06255360      -2.09622978      -1.47373001       0.00000000
Si      -2.14529689      -2.20662711      -0.04618467       0.00000000
Si       1.30653945      -0.78532461      -2.93790493       0.00000000
Si      -2.35174495       0.36227331       2.73103440       0.00000000
Si       0.37053234      -2.36157759       2.72924802       0.00000000
Si      -2.30685622       3.13898526       0.00686724       0.00000000
Si       3.20896710      -2.23697538      -0.01026479       0.00000000
