10
Lattice="10.86 0.0 0.0 0.0 10.86 0.0 0.0 0.0 10.86" Properties=species:S:1:pos:R:3:initial_magmoms:R:1 pbc="T T T"
Si       0.42249744      -0.93473106      -2.25679488       0.00000000
Si      -2.29250256      -0.93473106       0.45820512       0.00000000
Si       1.85479026       0.26138934       1.75506288       0.00000000
Si       2.42775300       0.78605766      -1.21193256       0.00000000
Si       1.77999744      -2.29223106      -0.89929488       0.00000000
Si      -0.93500256      -2.29223106       1.81570512       0.00000000
Si       3.13749744      -0.93473106       0.45820512       0.00000000
Si       0.42249744      -0.93473106       3.17320512       0.00000000
Si      -0.71207934       2.92363146       1.75154424       0.00000000
Si      -2.29250256       1.78026894      -2.25679488       0.00000000
