10
Lattice="10.86 0.0 0.0 0.0 10.86 0.0 0.0 0.0 10.86" Properties=species:S:1:pos:R:3:initial_magmoms:R:1 pbc="T T T"
Si      -1.28411898      -1.37762358       1.15922898       0.00000000
Si       1.87958364       0.84585282       1.19711952       0.00000000
Si      -1.28411898       1.33737642      -1.55577102       0.00000000
Si       1.43088102      -1.37762358      -1.55577102       0.00000000
Si       0.24193908       2.41415628       2.21662374       0.00000000
Si       2.62367826       2.52426582      -0.21750408       0.00000000
Si      -2.64161898      -0.02012358       2.51672898       0.00000000
Si      -2.64161898       2.69487642      -0.19827102       0.00000000
Si      -2.64161898      -2.73512358      -0.19827102       0.00000000
Si       2.78065956      -2.70213090      -0.30024642       0.00000000
