10
Lattice="16.290000149 0.0 0.0 0.0 16.290000149 0.0 0.0 0.0 29.1751946751" Properties=species:S:1:pos:R:3:initial_magmoms:R:1 pbc="T T T"
Si      -0.43922727       0.24757542      -2.28340507       0.00000000
Si       0.80984107       1.85942207       1.18090422       0.00000000
Si      -1.87359437      -0.80229880       1.19620661       0.00000000
Si       1.63255123      -1.73560178       0.08476590       0.00000000
Si       2.18484740       0.59507371       2.59828770       0.00000000
Si      -0.67106656      -2.19942695       2.63775590       0.00000000
Si      -2.15642135       1.87927958      -2.17828685       0.00000000
Si      -0.48915612      -2.04654530      -2.95131280       0.00000000
Si       1.71344738      -2.42895305      -2.14435609       0.00000000
Si       0.64368307      -3.52270276       1.23679514       0.00000000
