10
Lattice="16.290000149 0.0 0.0 0.0 16.290000149 0.0 0.0 0.0 29.1751946751" Properties=species:S:1:pos:R:3:initial_magmoms:R:1 pbc="T T T"
Si       1.42143283       1.43980795       1.16473212       0.00000000
Si       1.43849824      -1.23953869      -1.36995044       0.00000000
Si      -1.29158524       1.41245704      -1.36216066       0.00000000
Si      -1.64079398      -1.05272497       1.43083907       0.00000000
H        0.24079227      -2.66212811       1.69140274       0.00000000
H       -1.10183932       1.40509396       2.80679960       0.00000000
Si      -0.06791301       2.51084288       2.59201182       0.00000000
Si      -2.62744670       2.48106476       0.25752944       0.00000000
Si       2.87094963      -2.44718156       0.01549203       0.00000000
Si      -3.32091201       0.62389072       1.68037451       0.00000000
