10
Lattice="16.290000149 0.0 0.0 0.0 16.290000149 0.0 0.0 0.0 29.1751946751" Properties=species:S:1:pos:R:3:initial_magmoms:R:1 pbc="T T T"
Si      -1.30417741       1.38132685      -1.37438507       0.00000000
Si       1.38058729       1.37008675       1.32256992       0.00000000
Si       1.39755821      -1.33671832      -1.34763142       0.00000000
Si      -1.37960011      -1.33938010       1.38360443       0.00000000
Si       0.08960500      -2.63140289       2.65272540       0.00000000
Si      -2.67784796      -0.00239463      -2.68327183       0.00000000
Si      -2.62730009       2.75121813       0.00067103       0.00000000
Si       0.02625948      -2.70863606      -2.67699916       0.00000000
Si      -2.61386084       0.08625555       2.79833880       0.00000000
Si       2.75274939       0.04494411       2.67904143       0.00000000
