10
Lattice="16.290000149 0.0 0.0 0.0 16.290000149 0.0 0.0 0.0 29.1751946751" Properties=species:S:1:pos:R:3:initial_magmoms:R:1 pbc="T T T"
Si      -1.32167776       0.26380026       1.90400238       0.00000000
Si       2.21335490      -0.07941375       0.79884601       0.00000000
Si      -1.28743129      -0.12088809      -2.01947780       0.00000000
Si      -0.54240813       2.38244510       0.73095533       0.00000000
Si      -0.52189902      -1.99677935       1.68495502       0.00000000
H        2.06114114       0.71522875       2.07631108       0.00000000
H       -2.43293433       0.83787616      -1.74353881       0.00000000
H        0.23069898      -1.60982668      -2.70381117       0.00000000
H        0.65239822       2.74771578       1.62415391       0.00000000
H        0.75893482      -1.96066442       2.50795808       0.00000000
