10
Lattice="16.290000149 0.0 0.0 0.0 16.290000149 0.0 0.0 0.0 29.1751946751" Properties=species:S:1:pos:R:3:initial_magmoms:R:1 pbc="T T T"
Si       0.81490726      -0.98538211      -1.94271786       0.00000000
Si      -1.33123510      -1.33095817       1.39798780       0.00000000
Si       1.59366700       1.12976038       1.33949154       0.00000000
Si      -1.50877981       1.30693042      -1.29094401       0.00000000
H        1.26809506       0.29914956      -2.60225231       0.00000000
H        0.69356305       1.87393646       2.31671468       0.00000000
Si      -2.53773767       2.79862203       0.17729766       0.00000000
Si      -1.06290622      -1.68878432      -3.21948273       0.00000000
Si      -2.89514028      -2.45267129      -0.07124583       0.00000000
Si      -2.53017911       0.14271669       2.82658039       0.00000000
