10
Lattice="16.290000149 0.0 0.0 0.0 16.290000149 0.0 0.0 0.0 29.1751946751" Properties=species:S:1:pos:R:3:initial_magmoms:R:1 pbc="T T T"
Si       1.35904213       1.36505314       1.33082651       0.00000000
Si       1.36568845      -1.34706898      -1.35005296       0.00000000
Si      -1.32913369       1.36697536      -1.37566878       0.00000000
Si      -1.35614251      -1.37727064       1.35603387       0.00000000
Si       2.69553890      -0.01018125       2.68394286       0.00000000
Si      -0.00276930      -2.69584841      -2.68802739       0.00000000
Si      -2.70746318       0.00298107      -2.68055854       0.00000000
Si      -2.71454933       2.68139918      -0.01744677       0.00000000
Si       0.01146816       2.71235018       2.69759685       0.00000000
Si       2.69708645       2.72148887      -0.05102742       0.00000000
