10
Lattice="16.290000149 0.0 0.0 0.0 16.290000149 0.0 0.0 0.0 29.1751946751" Properties=species:S:1:pos:R:3:initial_magmoms:R:1 pbc="T T T"
Si       1.24038577      -1.39023748       1.37199270       0.00000000
Si      -1.36075258       1.34864911       1.33424000       0.00000000
Si      -1.28668195      -1.43464402      -1.32207395       0.00000000
Si       1.45658665       1.29842704      -1.30360605       0.00000000
Si       2.68201820      -0.06040332       2.58092525       0.00000000
Si      -2.64660374      -0.06892299      -2.65567210       0.00000000
Si       0.09436797       2.62444934      -2.68540162       0.00000000
Si       0.02868669       2.69951366       2.62547577       0.00000000
Si      -2.59061501      -2.78631493       0.09365237       0.00000000
Si      -2.71476110       2.70622514       0.02862087       0.00000000
