10
Lattice="16.290000149 0.0 0.0 0.0 16.290000149 0.0 0.0 0.0 29.1751946751" Properties=species:S:1:pos:R:3:initial_magmoms:R:1 pbc="T T T"
Si      -0.35039790       0.88379767       2.13460312       0.00000000
Si      -1.85311784      -0.93367765      -1.10810307       0.00000000
Si       1.05608071       1.76306672      -1.18153703       0.00000000
Si       1.60018300      -1.77881915      -0.08997630       0.00000000
Si       2.13726431       0.34153614      -2.67959575       0.00000000
Si      -0.67070818      -2.38674566      -2.51936559       0.00000000
Si       1.27332415       2.56868867       2.20418596       0.00000000
Si       2.22959603      -2.18126360       2.05755143       0.00000000
Si       3.43126047      -0.95363290      -1.25383317       0.00000000
Si      -3.15524271      -2.16852482       0.39316492       0.00000000
