10
Lattice="16.290000149 0.0 0.0 0.0 16.290000149 0.0 0.0 0.0 29.1751946751" Properties=species:S:1:pos:R:3:initial_magmoms:R:1 pbc="T T T"
H        0.71635276       0.08151516       1.32636270       0.00000000
H       -1.39916440       0.83632861       1.62809256       0.00000000
Si       1.60937056      -0.79070032      -1.52259506       0.00000000
Si      -1.87269842      -1.46280943      -0.15710842       0.00000000
Si      -0.34279047       1.95131396      -1.37193435       0.00000000
H        1.86315248       1.71307271       0.19900400       0.00000000
H        2.51483393       1.29153637       0.24227082       0.00000000
Si      -0.80195671       0.92896984       3.02955222       0.00000000
Si       0.12214242      -1.80338447      -2.99185786       0.00000000
Si      -0.99429274      -3.24423498      -1.43813287       0.00000000
