10
Lattice="16.290000149 0.0 0.0 0.0 16.290000149 0.0 0.0 0.0 29.1751946751" Properties=species:S:1:pos:R:3:initial_magmoms:R:1 pbc="T T T"
Si      -1.42016221       1.37121076      -1.25359976       0.00000000
Si      -1.30212487      -1.23484717       1.50126799       0.00000000
Si       1.18240966      -1.45306801      -1.41126252       0.00000000
Si       1.85311784       0.93367765       1.10810307       0.00000000
Si       3.45330084      -0.84514150       1.01812677       0.00000000
Si      -0.04473234       2.69333975      -2.61587713       0.00000000
Si       2.57746898      -2.73590552      -0.05082319       0.00000000
Si       2.56547954      -0.11583819      -2.75142508       0.00000000
Si       0.14726160      -2.58610268       2.78334275       0.00000000
Si      -2.77791744      -0.00977400      -2.60406118       0.00000000
