10
Lattice="16.290000149 0.0 0.0 0.0 16.290000149 0.0 0.0 0.0 29.1751946751" Properties=species:S:1:pos:R:3:initial_magmoms:R:1 pbc="T T T"
Si       1.35795559      -1.24149349       1.45764437       0.00000000
Si      -1.16997290       1.59131000       1.28770557       0.00000000
Si       1.31307664       1.42952896      -1.34646441       0.00000000
Si      -1.45790126      -1.38684916      -1.34906100       0.00000000
Si      -0.52956836       2.60762340      -2.27750322       0.00000000
Si       2.80380713      -2.43476858       0.10065442       0.00000000
Si      -1.45456181       3.41914071      -0.27944001       0.00000000
Si       0.00893181      -2.59685408      -2.68653945       0.00000000
Si      -2.64842334       0.28468404       2.66101991       0.00000000
Si       0.01274204      -2.70330923       2.69212650       0.00000000
