10
Lattice="16.290000149 0.0 0.0 0.0 16.290000149 0.0 0.0 0.0 29.1751946751" Properties=species:S:1:pos:R:3:initial_magmoms:R:1 pbc="T T T"
Si      -0.56705491       1.03421953       2.00932483       0.00000000
Si      -1.62372205      -1.68489101      -0.06958284       0.00000000
Si       2.19374174      -0.72541000      -0.46785342       0.00000000
Si       0.04631247       2.14655124      -0.97844850       0.00000000
Si       0.67978171       2.81812930       1.16934180       0.00000000
Si       1.91128943       0.16791732      -2.70757477       0.00000000
Si       1.92754685      -2.75462274       0.72929234       0.00000000
Si      -3.44839755      -0.22973787       0.09753268       0.00000000
Si      -0.21724344      -0.80562196      -3.38572299       0.00000000
Si      -2.79819849       1.54339606       1.68235843       0.00000000
