10
Lattice="16.290000149 0.0 0.0 0.0 16.290000149 0.0 0.0 0.0 29.1751946751" Properties=species:S:1:pos:R:3:initial_magmoms:R:1 pbc="T T T"
Si      -1.32027193      -1.34125345      -1.39396163       0.00000000
Si       1.35589816       1.31445640      -1.39916065       0.00000000
Si      -1.37893222       1.35917245       1.33575711       0.00000000
Si       1.35246097      -1.36717084       1.35635480       0.00000000
Si       2.69926931       2.68376123      -0.03565209       0.00000000
Si      -2.69455988      -2.70228296      -0.03258869       0.00000000
Si      -0.01847286       2.71352306       2.68884429       0.00000000
Si       0.09920610      -2.72282465      -2.67790068       0.00000000
Si       2.69943221      -0.01042560       2.71886557       0.00000000
Si      -0.01791900       2.66634722      -2.75957080       0.00000000
