10
Lattice="16.290000149 0.0 0.0 0.0 16.290000149 0.0 0.0 0.0 29.1751946751" Properties=species:S:1:pos:R:3:initial_magmoms:R:1 pbc="T T T"
Si      -1.32988710       1.40934565      -1.31040387       0.00000000
Si       1.33521231       1.37687968       1.34462637       0.00000000
Si       1.35066663      -1.32644584      -1.40641943       0.00000000
Si      -1.38506134      -1.33110478       1.36828746       0.00000000
Si      -2.71988024       0.06426405      -2.58571581       0.00000000
Si       2.64462858      -2.67923261       0.02561582       0.00000000
Si       2.67833259       0.01958058       2.70868342       0.00000000
Si       2.66629428       2.73500958      -0.03807363       0.00000000
Si      -0.05366333       2.73745308       2.66731300       0.00000000
Si      -2.75351909      -2.67988421       0.03031303       0.00000000
