10
Lattice="16.290000149 0.0 0.0 0.0 16.290000149 0.0 0.0 0.0 29.1751946751" Properties=species:S:1:pos:R:3:initial_magmoms:R:1 pbc="T T T"
Si       1.83231551       1.02208348      -0.94210205       0.00000000
Si       1.40608765      -1.36425493       1.25383608       0.00000000
Si      -1.32087466       1.48886622       1.20758757       0.00000000
Si      -1.30464982      -1.18446220      -1.55217375       0.00000000
Si       0.99913087       2.26652057      -2.65608347       0.00000000
Si      -2.67046859       0.09358605       2.51810813       0.00000000
Si      -2.62599689      -2.58776426      -0.21013434       0.00000000
Si       0.05023836      -2.70471017       2.56869792       0.00000000
Si       2.74382247      -2.51885756      -0.30265472       0.00000000
Si       2.82866079       0.09572004       2.47787554       0.00000000
