10
Lattice="16.290000149 0.0 0.0 0.0 16.290000149 0.0 0.0 0.0 29.1751946751" Properties=species:S:1:pos:R:3:initial_magmoms:R:1 pbc="T T T"
Si       1.35474157       1.35363385      -1.33622392       0.00000000
Si       1.39680235      -1.45024984       1.19206928       0.00000000
Si      -1.37560906      -1.36609570      -1.33832453       0.00000000
Si      -1.30214116       1.34628706       1.43442762       0.00000000
Si      -0.01931994      -2.77506669       2.43119815       0.00000000
Si       2.66168828       2.66825315       0.10914440       0.00000000
Si      -0.01801674       2.70062464      -2.67411082       0.00000000
Si       2.70765866      -0.03067407      -2.67437340       0.00000000
Si      -2.69892722       2.68582355       0.06780315       0.00000000
Si      -2.64903095      -0.03067407       2.74672788       0.00000000
