10
Lattice="16.290000149 0.0 0.0 0.0 16.290000149 0.0 0.0 0.0 29.1751946751" Properties=species:S:1:pos:R:3:initial_magmoms:R:1 pbc="T T T"
Si      -1.36045936      -1.35435061      -1.35308718       0.00000000
Si      -1.36875097       1.35399223       1.35084069       0.00000000
Si       1.34832331      -1.36006840       1.36601179       0.00000000
Si       1.35506737       1.34416936      -1.37537703       0.00000000
Si       2.68983740       2.69519681       0.01902223       0.00000000
Si       0.01847286      -2.71352306      -2.68884429       0.00000000
Si      -2.69154134      -2.71248050       0.02961282       0.00000000
Si      -0.02177973       2.69158043      -2.73418254       0.00000000
Si       2.71280630      -0.00496845       2.71399331       0.00000000
Si      -0.02819799       2.71565705       2.71670660       0.00000000
