10
Lattice="16.290000149 0.0 0.0 0.0 16.290000149 0.0 0.0 0.0 29.1751946751" Properties=species:S:1:pos:R:3:initial_magmoms:R:1 pbc="T T T"
Si       1.34856766       1.36186030       1.34993626       0.00000000
Si      -1.34312029       1.35729910      -1.36405705       0.00000000
Si       1.35904213      -1.35540946      -1.35399161       0.00000000
Si      -1.36766769      -1.36510201       1.34427627       0.00000000
Si      -0.03370401      -2.69881319      -2.68306760       0.00000000
Si       2.69221574      -0.02085120       2.69324975       0.00000000
Si      -2.67833259      -0.01958058      -2.70868342       0.00000000
Si      -0.03945438       2.71432127       2.68184224       0.00000000
Si       2.69674436       2.70971120      -0.02765808       0.00000000
Si       2.68910435      -2.72536589       0.01829285       0.00000000
