10
Lattice="16.290000149 0.0 0.0 0.0 16.290000149 0.0 0.0 0.0 29.1751946751" Properties=species:S:1:pos:R:3:initial_magmoms:R:1 pbc="T T T"
Si      -0.64676188       0.84344734      -1.07688561       0.00000000
Si       2.16692840       0.25054020       1.32464136       0.00000000
Si       2.26619966      -1.47175264      -0.47669351       0.00000000
Si       0.39553749       1.22531752       2.57409825       0.00000000
Si      -2.07741485       2.06990516       0.21009058       0.00000000
Si       0.42461514      -2.65505825      -1.48907276       0.00000000
Si      -2.08839431      -0.48638682      -2.28581815       0.00000000
Si      -1.37204155      -0.25835940       2.90856268       0.00000000
Si      -0.69651154      -2.31090757       2.14300557       0.00000000
Si       0.85542049       2.20380896      -2.23896279       0.00000000
