10
Lattice="16.290000149 0.0 0.0 0.0 16.290000149 0.0 0.0 0.0 29.1751946751" Properties=species:S:1:pos:R:3:initial_magmoms:R:1 pbc="T T T"
Si       2.27913229      -0.44834967       0.06476893       0.00000000
Si      -0.27671823       0.78178969       2.17760736       0.00000000
Si      -0.55278487       1.72702672      -1.51063323       0.00000000
Si      -1.52049232      -1.82004914      -0.48206174       0.00000000
H        0.70180579       1.50227196      -2.54463130       0.00000000
H       -1.33433020       1.88529385       2.14939494       0.00000000
Si       2.55857258      -1.25630110      -2.09626691       0.00000000
Si      -1.10273527      -1.15668775       3.17207304       0.00000000
Si      -2.66642867      -1.93367189       1.57648164       0.00000000
Si      -3.04012128      -0.81081847      -1.98300881       0.00000000
