10
Lattice="16.290000149 0.0 0.0 0.0 16.290000149 0.0 0.0 0.0 29.1751946751" Properties=species:S:1:pos:R:3:initial_magmoms:R:1 pbc="T T T"
Si       1.30393306       1.35167091      -1.41572632       0.00000000
Si      -1.35366643      -1.34569248      -1.37916980       0.00000000
Si       1.41201721      -1.36058154       1.31443005       0.00000000
Si      -1.40483332       1.37599188       1.31655983       0.00000000
Si       0.06105492      -2.64960925       2.68295090       0.00000000
Si       2.59061501       2.78631493      -0.09365237       0.00000000
Si      -2.68907503      -2.69890279      -0.00811070       0.00000000
Si       2.72743472      -0.01283489      -2.70935445       0.00000000
Si      -0.00070047      -2.70589120      -2.73931738       0.00000000
Si       2.66895362      -0.04187019       2.78375120       0.00000000
