10
Lattice="16.290000149 0.0 0.0 0.0 16.290000149 0.0 0.0 0.0 29.1751946751" Properties=species:S:1:pos:R:3:initial_magmoms:R:1 pbc="T T T"
Si      -0.71635276      -0.08151516      -1.32636270       0.00000000
H       -2.11551716       0.75481345       0.30172986       0.00000000
H        1.14679972       1.63155754      -1.12735870       0.00000000
H        1.79848118       1.21002121      -1.08409188       0.00000000
Si      -1.51830946       0.84745468       1.70318951       0.00000000
Si       0.25415658      -2.68276754       1.44154637       0.00000000
Si       2.24474573      -2.07915788       0.27261302       0.00000000
Si       0.89301781      -0.87221548      -2.84895776       0.00000000
Si       0.37905201       2.34606953       2.02329975       0.00000000
Si      -1.04052376      -1.18156258       2.76265753       0.00000000
