10
Lattice="16.290000149 0.0 0.0 0.0 16.290000149 0.0 0.0 0.0 29.1751946751" Properties=species:S:1:pos:R:3:initial_magmoms:R:1 pbc="T T T"
Si       1.34851855       1.35316144      -1.35679243       0.00000000
Si      -1.34390872       1.36376623       1.35241615       0.00000000
Si       1.34372953      -1.35863488       1.36636189       0.00000000
Si      -1.37067319      -1.34923555      -1.35413749       0.00000000
Si      -2.68164353      -0.08317674       2.60928354       0.00000000
Si       2.67149975      -2.70839171      -0.02783314       0.00000000
Si       2.66306479       2.71854038       0.03804445       0.00000000
Si      -0.02029734       2.70984152      -2.69683830       0.00000000
Si       2.69275331       0.01707192       2.71939072       0.00000000
Si      -0.02645496      -2.67991679      -2.74089284       0.00000000
