10
Lattice="16.290000149 0.0 0.0 0.0 16.290000149 0.0 0.0 0.0 29.1751946751" Properties=species:S:1:pos:R:3:initial_magmoms:R:1 pbc="T T T"
Si      -1.31474962       1.32327581       1.40096076       0.00000000
Si       0.98886817       1.78710098      -1.15202924       0.00000000
Si       1.38308617      -1.32400304       1.36582799       0.00000000
Si      -1.29767770      -1.28327066      -1.50690756       0.00000000
Si      -2.51727743       2.72040396      -0.04058853       0.00000000
Si       1.06976431       1.09374971      -3.38115124       0.00000000
Si      -2.63244773      -2.64820994      -0.09817453       0.00000000
Si      -0.64368307       3.52270276      -1.23679514       0.00000000
Si       0.11393226       2.72731092       2.64308883       0.00000000
Si       0.03349224      -2.71928321       2.67634856       0.00000000
