10
Lattice="16.290000149 0.0 0.0 0.0 16.290000149 0.0 0.0 0.0 29.1751946751" Properties=species:S:1:pos:R:3:initial_magmoms:R:1 pbc="T T T"
Si       1.31479849      -1.26345241       1.47262087       0.00000000
Si      -0.85734271      -1.93569185      -1.04172658       0.00000000
Si      -1.43164666       1.37182978       1.28416078       0.00000000
Si       1.21699333       1.43479063      -1.44142092       0.00000000
Si       2.57285891      -2.66408291       0.10797156       0.00000000
Si       2.61231329       2.75649609      -0.07681829       0.00000000
Si      -0.05997978       2.77827582       2.59633850       0.00000000
Si      -0.09632277      -2.66769929       2.73001924       0.00000000
Si       2.75460645       0.16374708      -2.63941276       0.00000000
Si      -1.50978979      -1.51047397      -3.17340635       0.00000000
