10
Lattice="16.290000149 0.0 0.0 0.0 16.290000149 0.0 0.0 0.0 29.1751946751" Properties=species:S:1:pos:R:3:initial_magmoms:R:1 pbc="T T T"
Si       1.33012738      -1.41947803      -1.28627598       0.00000000
Si      -1.34856766      -1.37382531       1.33701165       0.00000000
Si       1.38556225       1.35000118       1.32496229       0.00000000
Si      -1.30012120       1.34936587      -1.41864384       0.00000000
Si       2.66359421      -0.07926714      -2.61500187       0.00000000
Si       0.01477503       2.69576696       2.66346187       0.00000000
Si      -2.67807602       2.69811272      -0.06806573       0.00000000
Si      -2.70832655      -0.01633887       2.67638648       0.00000000
Si      -2.72880308      -0.05466924      -2.66077192       0.00000000
Si       0.03456738      -2.73303849       2.65873549       0.00000000
