10
Lattice="16.290000149 0.0 0.0 0.0 16.290000149 0.0 0.0 0.0 29.1751946751" Properties=species:S:1:pos:R:3:initial_magmoms:R:1 pbc="T T T"
Si       1.46683306      -1.21000492      -1.33747845       0.00000000
Si      -1.15197994      -1.63835047       1.18320002       0.00000000
Si      -1.77921011       1.14590377      -1.02343665       0.00000000
Si       1.45790126       1.38684916       1.34906100       0.00000000
H       -2.05208390      -0.89417440       2.16042317       0.00000000
Si      -3.38646297       1.32942691       0.65489559       0.00000000
Si       2.64994319       0.31659615      -2.65257952       0.00000000
Si       2.90281287      -2.39524904       0.10987378       0.00000000
Si      -0.95319307       3.08438121      -2.01790234       0.00000000
Si       0.25056969      -2.80736976       2.64420624       0.00000000
