10
Lattice="16.290000149 0.0 0.0 0.0 16.290000149 0.0 0.0 0.0 29.1751946751" Properties=species:S:1:pos:R:3:initial_magmoms:R:1 pbc="T T T"
Si      -1.37829691       1.36572103       1.31247531       0.00000000
Si      -1.37793853      -1.33566598      -1.34468472       0.00000000
Si       1.35622396       1.35537688      -1.35784274       0.00000000
Si       1.35438319      -1.35169534       1.36892931       0.00000000
Si      -0.00087966       2.70581789       2.64476057       0.00000000
Si      -0.00715131      -2.68143176      -2.68318430       0.00000000
Si      -2.73147464       0.01373247       2.67443175       0.00000000
Si       2.71463078      -2.70329294       0.01563790       0.00000000
Si       0.00048870       2.72583830      -2.69651737       0.00000000
Si      -2.72746730      -2.70086573       0.01134915       0.00000000
