10
Lattice="16.290000149 0.0 0.0 0.0 16.290000149 0.0 0.0 0.0 29.1751946751" Properties=species:S:1:pos:R:3:initial_magmoms:R:1 pbc="T T T"
Si       1.35480347      -1.38839671      -1.32974702       0.00000000
Si       1.36443086       1.33014367       1.37861547       0.00000000
Si      -1.34089507      -1.35324289       1.38526742       0.00000000
Si      -1.34811154       1.38504097      -1.36178139       0.00000000
Si      -2.69195510       2.68799663       0.06211399       0.00000000
Si       2.71124246       2.67792941       0.01067812       0.00000000
Si      -2.69723306      -2.70293456       0.03107158       0.00000000
Si       2.70063767      -0.05921415      -2.71092700       0.00000000
Si      -2.69503391       0.05181849      -2.74991964       0.00000000
Si       0.03407844       2.67983534       2.76936783       0.00000000
