10
Lattice="16.290000149 0.0 0.0 0.0 16.290000149 0.0 0.0 0.0 29.1751946751" Properties=species:S:1:pos:R:3:initial_magmoms:R:1 pbc="T T T"
Si       1.38541564      -1.31442382      -1.35822201       0.00000000
Si       1.37054287       1.36122499       1.32732548       0.00000000
Si      -1.35573526       1.37046142      -1.33867463       0.00000000
Si      -1.35622396      -1.35537688       1.35784274       0.00000000
Si       0.00708615      -2.67841811      -2.66311177       0.00000000
Si      -0.00822645       2.70819623       2.64907850       0.00000000
Si       0.02430468       2.68789889      -2.70243993       0.00000000
Si       2.71454933      -2.68139918       0.01744677       0.00000000
Si      -2.73452088       0.01034415       2.67031804       0.00000000
Si      -2.73416250      -2.69104286       0.01315801       0.00000000
