10
Lattice="16.290000149 0.0 0.0 0.0 16.290000149 0.0 0.0 0.0 29.1751946751" Properties=species:S:1:pos:R:3:initial_magmoms:R:1 pbc="T T T"
Si      -1.38732157      -1.27482283      -1.37775947       0.00000000
Si       1.20252781      -1.39712815       1.44154929       0.00000000
Si      -1.41947803       1.38157120       1.28393905       0.00000000
Si       1.87359437       0.80229880      -1.19620661       0.00000000
Si       2.51727743      -2.72040396       0.04058853       0.00000000
Si       2.63120969       0.00690696       2.68367736       0.00000000
Si       2.68343543       2.66172086      -0.01530239       0.00000000
Si       3.50614560      -0.93330298      -1.11144071       0.00000000
Si      -0.09920610       2.72282465       2.67790068       0.00000000
Si      -2.72335245      -2.68137964      -0.02508483       0.00000000
