10
Lattice="16.290000149 0.0 0.0 0.0 16.290000149 0.0 0.0 0.0 29.1751946751" Properties=species:S:1:pos:R:3:initial_magmoms:R:1 pbc="T T T"
Si      -1.36340785      -1.36189288       1.32951362       0.00000000
Si       1.33591033      -1.44142066      -1.28872670       0.00000000
Si      -1.38479662       1.35687556      -1.33931649       0.00000000
Si       1.38061009       1.34434855       1.35617975       0.00000000
Si       2.69175962      -0.10096542      -2.60358854       0.00000000
Si       0.01989009      -2.69964398       2.68047101       0.00000000
Si      -2.71319726       0.00322542       2.68502234       0.00000000
Si      -0.03520269       2.75215573      -2.64983706       0.00000000
Si      -2.69817788      -2.71292033      -0.06488563       0.00000000
Si      -2.70865235       2.70858719       0.04519238       0.00000000
