10
Lattice="16.290000149 0.0 0.0 0.0 16.290000149 0.0 0.0 0.0 29.1751946751" Properties=species:S:1:pos:R:3:initial_magmoms:R:1 pbc="T T T"
Si       0.45843318       2.20736018      -0.61052012       0.00000000
Si       1.07323408       0.08788455       2.10122670       0.00000000
Si      -0.42345855      -1.81415216      -1.48440473       0.00000000
Si      -2.31110956       0.17726778       0.59698283       0.00000000
H        2.73764856       1.01385703      -0.78338315       0.00000000
H       -0.08241111      -2.92864881       1.04543475       0.00000000
H        1.81710065       2.78159898      -0.33916164       0.00000000
Si      -1.27721746      -3.29391948       0.15223617       0.00000000
Si      -2.08334441       2.02950596       2.03426962       0.00000000
Si      -1.98710309      -0.73655236      -2.84892858       0.00000000
