10
Lattice="16.290000149 0.0 0.0 0.0 16.290000149 0.0 0.0 0.0 29.1751946751" Properties=species:S:1:pos:R:3:initial_magmoms:R:1 pbc="T T T"
Si      -1.31666288       1.43525327      -1.27583126       0.00000000
Si       1.31420961       1.38356184       1.36405705       0.00000000
Si      -1.39886222      -1.33454197       1.33424000       0.00000000
Si       1.28142435      -1.34524450      -1.45633819       0.00000000
Si      -2.64131682       0.09885424      -2.61304422       0.00000000
Si       2.64711769      -2.69312798      -0.08440384       0.00000000
Si      -0.03004634      -2.69122205       2.67428587       0.00000000
Si       2.66049178       0.02275713       2.71941990       0.00000000
Si       2.69349532       0.04499298      -2.71291383       0.00000000
Si       2.63845141       2.76721491       0.00207144       0.00000000
