10
Lattice="16.290000149 0.0 0.0 0.0 16.290000149 0.0 0.0 0.0 29.1751946751" Properties=species:S:1:pos:R:3:initial_magmoms:R:1 pbc="T T T"
Si       1.34521355       1.46181574      -1.23448213       0.00000000
Si       1.38514034      -1.33996654       1.37209774       0.00000000
Si      -1.36047402       1.45813420       1.28707247       0.00000000
Si      -1.22007361      -1.49090968      -1.39698126       0.00000000
Si      -2.67991517      -2.66903507       0.01940734       0.00000000
Si      -2.66360888       0.10428858       2.72124335       0.00000000
Si      -0.01274204       2.70330923      -2.69212650       0.00000000
Si       2.79106509       0.26854065      -2.59147208       0.00000000
Si       0.03930614      -2.66914910       2.75327771       0.00000000
Si       0.03005179       2.74506051       2.72176850       0.00000000
