10
Lattice="16.290000149 0.0 0.0 0.0 16.290000149 0.0 0.0 0.0 29.1751946751" Properties=species:S:1:pos:R:3:initial_magmoms:R:1 pbc="T T T"
Si      -1.38873880      -1.35977518       1.31317551       0.00000000
Si      -1.36850662       1.34117200      -1.35527532       0.00000000
Si       1.35180937      -1.36995643      -1.35130749       0.00000000
Si       1.37560906       1.36609570       1.33832453       0.00000000
Si       2.77241142      -0.08415414       2.53039381       0.00000000
Si       0.00755856       2.69731451      -2.68741471       0.00000000
Si      -0.06861348      -2.80002297       2.58959028       0.00000000
Si      -2.68718213       2.71052570       0.02856252       0.00000000
Si      -2.67882536       0.00915498       2.72513823       0.00000000
Si       2.72639216      -0.02770929      -2.69421253       0.00000000
