10
Lattice="16.290000149 0.0 0.0 0.0 16.290000149 0.0 0.0 0.0 29.1751946751" Properties=species:S:1:pos:R:3:initial_magmoms:R:1 pbc="T T T"
Si      -0.36600372      -0.65032939      -2.22682591       0.00000000
Si      -1.99058915      -0.60360967       1.16893335       0.00000000
Si       0.77566465       2.03802563       1.00762370       0.00000000
Si       1.48214566      -1.86303845       0.37370507       0.00000000
H       -2.24474573       2.07915788      -0.27261302       0.00000000
Si       1.80142967       0.70211530       2.62497979       0.00000000
H        2.75828799       1.94178431      -0.05222360       0.00000000
Si      -2.13358277      -2.13400631      -1.89236148       0.00000000
H       -0.44626455       3.28917909      -1.35670490       0.00000000
Si      -1.06578955      -1.64379133       3.00702896       0.00000000
