10
Lattice="16.290000149 0.0 0.0 0.0 16.290000149 0.0 0.0 0.0 29.1751946751" Properties=species:S:1:pos:R:3:initial_magmoms:R:1 pbc="T T T"
Si       1.40206402       1.41361363       1.25835532       0.00000000
Si      -1.26270307       1.39154068      -1.43078072       0.00000000
Si       1.42936606      -1.28254429      -1.41275045       0.00000000
Si      -1.29469663      -1.59006691       1.27705662       0.00000000
Si      -2.52758900      -2.72696231      -0.34785585       0.00000000
Si       0.28541709      -2.67273290       2.60196056       0.00000000
Si      -2.58725927       2.78629050      -0.06681120       0.00000000
Si       2.87126914       0.12159084       2.52747629       0.00000000
Si      -2.56964978       0.07692138      -2.87614904       0.00000000
Si       2.86863189      -2.63417447      -0.12813745       0.00000000
