10
Lattice="16.290000149 0.0 0.0 0.0 16.290000149 0.0 0.0 0.0 29.1751946751" Properties=species:S:1:pos:R:3:initial_magmoms:R:1 pbc="T T T"
Si       1.32012532      -1.44024778       1.27641477       0.00000000
Si      -1.34907265      -1.36164853      -1.34821492       0.00000000
Si       1.38873880       1.35977518      -1.31317551       0.00000000
Si      -1.29008656       1.36893016       1.41196272       0.00000000
Si       2.74502793      -0.04919580       2.45634717       0.00000000
Si       0.02023218       2.70094718      -2.66845083       0.00000000
Si      -2.66271455       2.71863812       0.06298925       0.00000000
Si      -2.71547786      -0.00540828      -2.67819535       0.00000000
Si      -0.06294456      -2.77747761       2.61657733       0.00000000
Si       2.74054817      -0.01018125      -2.66448300       0.00000000
