10
Lattice="16.290000149 0.0 0.0 0.0 16.290000149 0.0 0.0 0.0 29.1751946751" Properties=species:S:1:pos:R:3:initial_magmoms:R:1 pbc="T T T"
Si      -1.23367429       1.36871839       1.42135713       0.00000000
Si       1.32221044      -1.37521810       1.33499856       0.00000000
Si       1.34954050       1.40727682      -1.30874088       0.00000000
Si      -1.38927637      -1.35870004      -1.33047640       0.00000000
H       -1.88672411       0.53292735       2.48864411       0.00000000
Si       2.61159328       0.03570768       2.65269623       0.00000000
Si      -2.81378802       2.45138438       0.09645319       0.00000000
Si      -0.08972532       2.75890701      -2.59335388       0.00000000
Si      -0.00649971      -2.69902496      -2.67107660       0.00000000
Si       2.68850162       0.04468347      -2.68157967       0.00000000
