10
Lattice="16.290000149 0.0 0.0 0.0 16.290000149 0.0 0.0 0.0 29.1751946751" Properties=species:S:1:pos:R:3:initial_magmoms:R:1 pbc="T T T"
Si      -1.39274614      -1.34340373      -1.32907599       0.00000000
Si      -1.35904213       1.35540946       1.35399161       0.00000000
Si       1.33006222      -1.36995643       1.37228446       0.00000000
Si       1.36031275       1.34449516      -1.37216776       0.00000000
Si      -0.03660363      -2.73849563      -2.61832785       0.00000000
Si       2.70728399       2.70124040      -0.00965699       0.00000000
Si      -2.70216242       2.71270856      -0.01006544       0.00000000
Si       2.68982111      -2.72744287       0.03290962       0.00000000
Si       2.70363503      -0.02305035       2.71539372       0.00000000
Si      -0.01047447       2.71726976       2.70392787       0.00000000
