10
Lattice="16.290000149 0.0 0.0 0.0 16.290000149 0.0 0.0 0.0 29.1751946751" Properties=species:S:1:pos:R:3:initial_magmoms:R:1 pbc="T T T"
Si       1.31158936       1.35658234      -1.38672618       0.00000000
Si      -1.39072618       1.47271375       1.21546779       0.00000000
Si       1.59480730      -1.30543174       1.21339635       0.00000000
Si      -1.50485392      -1.33667596      -1.29829616       0.00000000
Si      -1.70207696      -2.38949867       2.12115335       0.00000000
Si      -2.24448509      -0.00705357       2.85210868       0.00000000
Si       2.36696960      -0.11254761      -2.86377876       0.00000000
Si       3.46750572       0.15737769       1.37050477       0.00000000
Si       3.12471525       2.10869165      -0.00142958       0.00000000
H        2.06834132       0.99370630       2.99859733       0.00000000
