10
Lattice="16.290000149 0.0 0.0 0.0 16.290000149 0.0 0.0 0.0 29.1751946751" Properties=species:S:1:pos:R:3:initial_magmoms:R:1 pbc="T T T"
Si       0.59963491      -1.30805443       0.46414817       0.00000000
Si      -1.51813027       1.48893859       0.68433337       0.00000000
H        2.01645767       0.32542533      -1.38226237       0.00000000
Si       1.10301220       1.22893390      -2.17970797       0.00000000
Si      -0.03347595       2.66264939      -0.71563835       0.00000000
Si      -2.79922068      -0.18766080      -0.53142617       0.00000000
Si      -1.59067779      -1.51784357      -2.12666747       0.00000000
Si      -0.24939990      -2.97996231      -0.92494120       0.00000000
Si      -0.23069898       1.60982668       2.70381117       0.00000000
Si       2.91022482      -1.23453766       0.12253582       0.00000000
