10
Lattice="16.28999089631971 0.0 0.0 0.0 16.28999089631971 0.0 0.0 0.0 34.51007289658418" Properties=species:S:1:pos:R:3:initial_magmoms:R:1 pbc="T T T"
Si       1.35386842      -1.35610992       1.35955959       0.00000000
Si       1.34466457       1.35692442      -1.36879104       0.00000000
Si      -1.36043895       1.35786924       1.35741997       0.00000000
Si      -1.37223769      -1.35840681      -1.36497077       0.00000000
Si       2.70672034      -2.70707383      -0.00421023       0.00000000
Si      -2.71490836      -2.70908239      -0.00037961       0.00000000
Si       2.71102090       0.00162900       2.71528856       0.00000000
Si       2.71118380       2.71593396      -0.00217414       0.00000000
Si      -0.00377439      -2.71243650       2.71549562       0.00000000
Si      -0.00299736       2.71603170       2.71508150       0.00000000
