10
Lattice="16.28999089631971 0.0 0.0 0.0 16.28999089631971 0.0 0.0 0.0 34.51007289658418" Properties=species:S:1:pos:R:3:initial_magmoms:R:1 pbc="T T T"
Si       0.84256278      -1.73550402       1.34406456       0.00000000
Si       1.39072128       1.28705744      -1.39948777       0.00000000
Si      -1.29934872      -1.44039438      -1.41153179       0.00000000
Si      -1.00053669       1.71643236       1.42053892       0.00000000
Si       1.76583111      -0.25436835       2.94657520       0.00000000
Si       2.62610601       1.63096850       1.67239358       0.00000000
Si      -2.85242365      -2.43507807       0.16678728       0.00000000
Si      -2.76942610       2.53311685       0.14100824       0.00000000
Si       0.02427699       2.57130875      -2.76812351       0.00000000
Si      -1.28989921      -2.88440514       2.12402715       0.00000000
