10
Lattice="16.28999089631971 0.0 0.0 0.0 16.28999089631971 0.0 0.0 0.0 34.51007289658418" Properties=species:S:1:pos:R:3:initial_magmoms:R:1 pbc="T T T"
Si      -1.40302512      -1.85890077       0.01939467       0.00000000
Si      -1.02977561       1.74379563      -1.17327411       0.00000000
Si       2.11958964      -0.39350124      -1.07888901       0.00000000
Si       0.49368474       0.70881048       2.25092076       0.00000000
Si       2.85667956       1.77350859      -0.57442048       0.00000000
Si       0.92255157       3.12135852      -1.05593980       0.00000000
Si       0.08721666      -3.29634666       1.13555458       0.00000000
Si      -3.04926713      -1.15424424       1.53563008       0.00000000
Si      -1.41210354       0.75243510      -3.27203988       0.00000000
Si       2.16764514      -2.47052511       1.89229188       0.00000000
