10
Lattice="16.28999089631971 0.0 0.0 0.0 16.28999089631971 0.0 0.0 0.0 34.51007289658418" Properties=species:S:1:pos:R:3:initial_magmoms:R:1 pbc="T T T"
Si      -1.70780939      -0.96669747       1.37918345       0.00000000
Si       1.08150939       1.79276337       1.32078547       0.00000000
Si       1.66125420      -1.91233197       0.25008916       0.00000000
Si      -0.78099147       0.27297153      -2.72326039       0.00000000
Si      -1.68613718      -2.35939473      -1.85036212       0.00000000
Si       2.26269729       0.29693412       2.74023733       0.00000000
Si      -0.48334059      -2.43991620       2.75754759       0.00000000
Si       1.24108623       1.99453131      -2.98143039       0.00000000
Si      -3.32588762      -2.00178036      -0.06239425       0.00000000
Si       2.04452532      -1.53311706      -3.09462350       0.00000000
