10
Lattice="16.28999089631971 0.0 0.0 0.0 16.28999089631971 0.0 0.0 0.0 34.51007289658418" Properties=species:S:1:pos:R:3:initial_magmoms:R:1 pbc="T T T"
Si      -1.34977311      -1.34395662      -1.36722083       0.00000000
Si      -1.17253791       1.45923376       1.45418626       0.00000000
Si       1.37086866       1.36734188      -1.36815260       0.00000000
Si       1.33762077      -1.38285714       1.39800383       0.00000000
Si       2.16178074       0.47013754       2.61783206       0.00000000
Si       0.65072034       2.33208454       2.71335600       0.00000000
Si      -2.69083107      -2.69833980       0.02112018       0.00000000
Si       0.00975771      -2.70220053      -2.72374354       0.00000000
Si      -2.70464499       0.01100064      -2.72540002       0.00000000
Si      -2.69886204       2.73311176       0.02187940       0.00000000
