10
Lattice="16.28999089631971 0.0 0.0 0.0 16.28999089631971 0.0 0.0 0.0 34.51007289658418" Properties=species:S:1:pos:R:3:initial_magmoms:R:1 pbc="T T T"
Si       1.82562030       0.94739382      -1.09521229       0.00000000
Si       0.16482222      -1.42885454       1.88777106       0.00000000
Si      -1.07056251      -1.77276560      -1.18411028       0.00000000
Si      -1.01871144       1.69873749       1.35531485       0.00000000
Si      -1.70979840      -0.09303219       2.66331636       0.00000000
Si       0.29929617       2.22127182      -2.52751915       0.00000000
Si      -2.43700681      -0.48851429      -2.55274603       0.00000000
Si       2.29711806      -0.55004325       2.69913784       0.00000000
Si       0.73976148       2.99579616       2.25923769       0.00000000
Si      -2.46128379      -3.05982305       0.21537749       0.00000000
