10
Lattice="16.28999089631971 0.0 0.0 0.0 16.28999089631971 0.0 0.0 0.0 34.51007289658418" Properties=species:S:1:pos:R:3:initial_magmoms:R:1 pbc="T T T"
Si      -1.98001692      -0.21905163       1.17023723       0.00000000
Si       1.67154948      -0.47690604       1.58356460       0.00000000
Si       0.31820886       2.14464366      -0.92455988       0.00000000
Si       0.45369279      -1.34459289      -1.93467028       0.00000000
Si       2.67206499      -0.45336699      -1.80518841       0.00000000
Si       2.62738152       1.82658141      -1.11843758       0.00000000
Si       3.11010309      -1.70833230       0.09386745       0.00000000
Si      -2.95008642      -2.11105368       0.24305458       0.00000000
Si      -3.37525542       1.33017624       0.25941236       0.00000000
Si       0.84551616      -2.16305136       2.94709285       0.00000000
