10
Lattice="16.28999089631971 0.0 0.0 0.0 16.28999089631971 0.0 0.0 0.0 34.51007289658418" Properties=species:S:1:pos:R:3:initial_magmoms:R:1 pbc="T T T"
Si       1.34827443       1.34384355       1.35377225       0.00000000
Si       1.32344847      -1.38722382      -1.35283012       0.00000000
Si      -1.39592268       1.31618313      -1.36471540       0.00000000
Si      -1.36619343      -1.37420811       1.34863025       0.00000000
Si      -0.52771455      -2.20253832      -2.60275219       0.00000000
Si      -2.25753336      -0.40687533      -2.68747840       0.00000000
Si       2.68565085       2.69539227      -0.00960416       0.00000000
Si      -0.00677664       2.69777061       2.70853494       0.00000000
Si      -2.72852613       2.68320735      -0.00654311       0.00000000
Si       2.70578529      -0.01484019       2.70839690       0.00000000
