10
Lattice="16.28999089631971 0.0 0.0 0.0 16.28999089631971 0.0 0.0 0.0 34.51007289658418" Properties=species:S:1:pos:R:3:initial_magmoms:R:1 pbc="T T T"
Si      -1.34664543      -1.34688978      -1.37029223       0.00000000
Si       1.36839258       1.36620972      -1.36722083       0.00000000
Si       1.28744757      -1.45142271       1.37784994       0.00000000
Si      -1.26262161       1.38416130       1.50570983       0.00000000
Si       2.21571693       0.30011067       2.58435727       0.00000000
Si       0.71557083       2.18861037       2.76432740       0.00000000
Si      -2.70425403      -2.70389565       0.01252716       0.00000000
Si      -2.69006544       2.72909628       0.01649582       0.00000000
Si      -2.70373275       0.00791694      -2.72926515       0.00000000
Si       0.00972513      -2.70488934      -2.72833338       0.00000000
