10
Lattice="16.28999089631971 0.0 0.0 0.0 16.28999089631971 0.0 0.0 0.0 34.51007289658418" Properties=species:S:1:pos:R:3:initial_magmoms:R:1 pbc="T T T"
Si       1.25395533      -1.36212093      -1.48434808       0.00000000
Si       1.25960796       1.35337320       1.51344009       0.00000000
Si      -1.12673043      -1.61042940       1.45808590       0.00000000
Si      -1.45134126       1.33633386      -1.46188201       0.00000000
Si      -1.93477959       0.30923307       2.73482128       0.00000000
Si      -0.56927034       2.39801832       2.64205815       0.00000000
Si       2.54036034       2.58880680      -0.09655924       0.00000000
Si       2.58180210      -2.80435608      -0.20426524       0.00000000
Si      -2.82046689      -2.64363894      -0.02236254       0.00000000
Si       2.62487286      -0.02642238      -2.84359709       0.00000000
