10
Lattice="16.28999089631971 0.0 0.0 0.0 16.28999089631971 0.0 0.0 0.0 34.51007289658418" Properties=species:S:1:pos:R:3:initial_magmoms:R:1 pbc="T T T"
Si      -1.25960796      -1.35337320      -1.51344009       0.00000000
Si      -1.82887830       1.04464512       1.12861805       0.00000000
Si       1.28075238       1.23543360      -1.60999933       0.00000000
Si       2.90206350      -0.57389670       1.06211711       0.00000000
Si      -0.69222726      -1.19746161       3.01659618       0.00000000
Si      -3.19438755      -1.04414013       1.22138118       0.00000000
Si       2.20902174       2.98696698      -0.40349200       0.00000000
Si       2.90232414       1.84564071       1.53949521       0.00000000
Si      -2.38633839      -2.96380260      -0.05535419       0.00000000
Si      -2.86011675       2.75781555      -0.17462107       0.00000000
