10
Lattice="16.28999089631971 0.0 0.0 0.0 16.28999089631971 0.0 0.0 0.0 34.51007289658418" Properties=species:S:1:pos:R:3:initial_magmoms:R:1 pbc="T T T"
Si      -0.20997810       1.39158954       1.84207422       0.00000000
Si      -2.05493463      -1.01687067      -0.36083752       0.00000000
Si       0.17329302       1.77080445      -1.50263843       0.00000000
Si       1.55707965      -1.86131169      -0.13345053       0.00000000
Si      -0.78833826      -1.03418694      -2.64657897       0.00000000
Si       1.22847777       0.21815568      -2.87952209       0.00000000
Si      -1.02196944      -0.50301891       2.99136037       0.00000000
Si      -1.88358012      -2.22607737       1.66859737       0.00000000
Si       2.84514624      -1.13612976      -1.90447395       0.00000000
Si      -3.55736947       0.94452678      -0.25837706       0.00000000
