10
Lattice="16.28999089631971 0.0 0.0 0.0 16.28999089631971 0.0 0.0 0.0 34.51007289658418" Properties=species:S:1:pos:R:3:initial_magmoms:R:1 pbc="T T T"
Si      -1.30953681      -0.38258694       1.93284124       0.00000000
Si       1.90102671       1.12516659       0.87407161       0.00000000
Si      -1.35759231       1.69443693      -1.03833965       0.00000000
Si       0.43126146      -2.10271320      -1.11829954       0.00000000
Si      -1.13642298       1.59733224       3.15549930       0.00000000
Si      -3.38996529      -1.20840849       1.17610394       0.00000000
Si       0.99023652       2.55044385       2.62307760       0.00000000
Si       3.14636463      -0.46955925       2.18017507       0.00000000
Si      -0.42181326      -3.83826609       0.25944687       0.00000000
Si      -0.91124631      -2.31555834      -3.04758624       0.00000000
