10
Lattice="16.28999089631971 0.0 0.0 0.0 16.28999089631971 0.0 0.0 0.0 34.51007289658418" Properties=species:S:1:pos:R:3:initial_magmoms:R:1 pbc="T T T"
Si       1.03707027      -0.75018708      -1.95982814       0.00000000
Si       1.60759494      -1.36006839       1.06039160       0.00000000
Si      -2.19032082      -0.90526788      -0.12641047       0.00000000
Si      -0.70351623       2.26387017       0.30472411       0.00000000
Si      -0.86237631      -0.34603218      -3.32691093       0.00000000
Si      -2.81303865       0.32019624      -2.05535207       0.00000000
Si       2.40736878       1.12469418      -2.34119916       0.00000000
Si      -2.58494607       2.48538159      -1.11105242       0.00000000
Si       0.85305843      -3.62671505       0.73578968       0.00000000
Si       2.39023170      -0.08506638       2.97759977       0.00000000
