10
Lattice="16.28999089631971 0.0 0.0 0.0 16.28999089631971 0.0 0.0 0.0 34.51007289658418" Properties=species:S:1:pos:R:3:initial_magmoms:R:1 pbc="T T T"
Si       0.51266259      -1.18574910      -1.96914586       0.00000000
Si       1.88431317       0.91556316       1.26846127       0.00000000
Si      -0.93087413      -1.89086827       1.26690141       0.00000000
Si      -1.69021945       1.81284894      -0.08492934       0.00000000
Si      -2.02635287      -0.45105381       2.79357958       0.00000000
Si       0.69054939       2.26427742       2.78975931       0.00000000
Si      -3.37723370       0.85038687       1.33613211       0.00000000
Si      -1.86274293      -1.84107788      -2.66604266       0.00000000
Si       2.71707426      -2.26797036      -1.40249015       0.00000000
Si      -0.66973077       3.54294468       1.29957557       0.00000000
