10
Lattice="16.28999089631971 0.0 0.0 0.0 16.28999089631971 0.0 0.0 0.0 34.51007289658418" Properties=species:S:1:pos:R:3:initial_magmoms:R:1 pbc="T T T"
Si       1.21580415       1.31251462       1.53825285       0.00000000
Si      -1.44267498      -1.63603143       0.91665707       0.00000000
Si       1.40309028      -1.35186867      -1.40959923       0.00000000
Si      -1.55126412       1.78505494      -0.50250145       0.00000000
Si       1.47535272       3.26369824       0.24740285       0.00000000
Si      -2.64038094      -2.19332862      -1.09041538       0.00000000
Si      -2.85946515      -0.38311962       2.37967792       0.00000000
Si      -3.21051465       1.65297562       1.22269257       0.00000000
Si       0.15747543       1.63427470       3.60482070       0.00000000
Si       3.71509740      -1.17737019      -0.71749933       0.00000000
