10
Lattice="16.28999089631971 0.0 0.0 0.0 16.28999089631971 0.0 0.0 0.0 34.51007289658418" Properties=species:S:1:pos:R:3:initial_magmoms:R:1 pbc="T T T"
Si      -2.14733151       0.68157360      -0.41167089       0.00000000
Si       0.53709759       1.84665069       1.29433552       0.00000000
Si      -0.25954857      -1.95118362       1.29085000       0.00000000
Si       1.42234506      -0.78807762      -1.75842724       0.00000000
Si      -3.02661684      -1.47864330      -0.74990430       0.00000000
Si       1.97555346      -2.31001974       1.81433359       0.00000000
Si      -1.47535272      -3.26369824      -0.24740285       0.00000000
Si       2.83590981      -2.22571899      -0.37143212       0.00000000
Si       2.70656721       1.48548510       2.00289673       0.00000000
Si      -1.31787729      -1.62942354       3.35741785       0.00000000
