10
Lattice="16.28999089631971 0.0 0.0 0.0 16.28999089631971 0.0 0.0 0.0 34.51007289658418" Properties=species:S:1:pos:R:3:initial_magmoms:R:1 pbc="T T T"
Si      -1.36702422       1.21648833       1.47139990       0.00000000
Si      -1.05208965      -1.87996374      -1.13382011       0.00000000
Si       1.35493704      -1.46862495       1.45814457       0.00000000
Si       1.46119671       1.43532819      -1.51911152       0.00000000
Si      -2.73665484       2.55994092       0.12353923       0.00000000
Si      -1.83961341       0.03862359      -3.34424677       0.00000000
Si       0.00500103       2.57388516       2.82541372       0.00000000
Si       0.86793120      -3.55626664      -1.19639760       0.00000000
Si       2.76969096       2.76047082      -0.04106356       0.00000000
Si      -2.70775638      -0.14237460       2.82399880       0.00000000
