10
Lattice="16.28999089631971 0.0 0.0 0.0 16.28999089631971 0.0 0.0 0.0 34.51007289658418" Properties=species:S:1:pos:R:3:initial_magmoms:R:1 pbc="T T T"
Si       2.14733151      -0.68157360       0.41167089       0.00000000
Si      -0.43803810       1.25496531      -1.89905586       0.00000000
Si      -0.87928533      -2.16021690      -0.33823341       0.00000000
Si      -1.43855361       1.23142626       1.48969715       0.00000000
Si      -2.65641030       0.36373941      -2.02853773       0.00000000
Si       2.68442910       1.16507709       1.70600641       0.00000000
Si      -3.11010309       1.70833230      -0.09386745       0.00000000
Si       1.88778294      -2.63275722       1.70252089       0.00000000
Si      -2.26458693      -0.45471906       2.85322540       0.00000000
Si      -2.53853586      -2.29229622       1.38696060       0.00000000
