10
Lattice="16.28999089631971 0.0 0.0 0.0 16.28999089631971 0.0 0.0 0.0 34.51007289658418" Properties=species:S:1:pos:R:3:initial_magmoms:R:1 pbc="T T T"
Si       1.73973942      -1.40910129       0.77592491       0.00000000
Si      -0.75152286       1.24206363       1.87310427       0.00000000
Si       0.68787783       1.17077859      -1.94471271       0.00000000
Si      -1.01814129      -1.64177136      -1.41487927       0.00000000
Si       1.59852141       1.57087728       2.48120661       0.00000000
Si       0.15988635      -3.19057569       1.20636929       0.00000000
Si       2.90007612       0.45061398      -2.11550316       0.00000000
Si      -2.36819133       2.59634907       0.89805613       0.00000000
Si       3.10484142      -1.70812053      -1.19857001       0.00000000
Si      -1.84417461      -3.32791668      -0.05135102       0.00000000
