10
Lattice="16.28999089631971 0.0 0.0 0.0 16.28999089631971 0.0 0.0 0.0 34.51007289658418" Properties=species:S:1:pos:R:3:initial_magmoms:R:1 pbc="T T T"
Si      -1.35676152      -1.35777150      -1.35662623       0.00000000
Si       1.35809730       1.35799956      -1.35666074       0.00000000
Si      -1.35283563       1.35879777       1.36290707       0.00000000
Si       1.35479043      -1.35892809       1.36190628       0.00000000
Si      -0.01389537      -2.69360037       2.71031911       0.00000000
Si      -2.71469592       0.00029322      -2.71439130       0.00000000
Si      -0.00004887      -2.71459818      -2.71452934       0.00000000
Si       2.71634121      -2.71334385       0.00041412       0.00000000
Si       0.00066789       2.71544526      -2.71432228       0.00000000
Si       2.71534752       0.00035838      -2.71442581       0.00000000
