10
Lattice="16.28999089631971 0.0 0.0 0.0 16.28999089631971 0.0 0.0 0.0 34.51007289658418" Properties=species:S:1:pos:R:3:initial_magmoms:R:1 pbc="T T T"
Si       0.11753235      -1.85759757       1.59505646       0.00000000
Si       0.00026064       2.41953741       0.47737811       0.00000000
Si       1.77399729       0.72438372       1.72653991       0.00000000
Si       2.51322120       0.59986296      -0.91165311       0.00000000
Si       1.23733953      -0.81648738      -2.43948391       0.00000000
Si      -2.90206350       0.57389670      -1.06211711       0.00000000
Si       0.36795852      -2.99701791      -1.51685659       0.00000000
Si      -1.62131112       1.80933030      -2.67211644       0.00000000
Si      -1.58447943      -1.22528493       3.10715066       0.00000000
Si      -0.69304176       3.56086368      -1.46560910       0.00000000
