10
Lattice="16.28999089631971 0.0 0.0 0.0 16.28999089631971 0.0 0.0 0.0 34.51007289658418" Properties=species:S:1:pos:R:3:initial_magmoms:R:1 pbc="T T T"
Si      -0.21603798       1.61479512      -1.75000677       0.00000000
Si       0.22726179       1.31716053       1.98854053       0.00000000
Si      -1.53777600      -1.79799246       0.38333810       0.00000000
Si       2.28810969      -0.63656433       0.47620476       0.00000000
Si       1.35146727      -1.06958511      -1.88818518       0.00000000
Si       2.19191724       0.27590373       2.63077335       0.00000000
Si       1.09776681       3.24068373       1.00210406       0.00000000
Si       2.07438489      -2.95358877       0.19436084       0.00000000
Si      -0.52170354      -1.80318897      -3.17396220       0.00000000
Si       1.71576054       3.01141827      -1.29468062       0.00000000
