10
Lattice="16.28999089631971 0.0 0.0 0.0 16.28999089631971 0.0 0.0 0.0 34.51007289658418" Properties=species:S:1:pos:R:3:initial_magmoms:R:1 pbc="T T T"
Si       1.38912975      -0.42165036      -1.92949376       0.00000000
Si       0.21620088      -1.85951979       1.56744839       0.00000000
Si      -2.46194028       0.17860356      -0.30317116       0.00000000
Si       1.18728036       2.00753073       0.87828185       0.00000000
Si       0.29149326       3.31936443      -1.13269025       0.00000000
Si      -3.08508165      -1.77412761       0.90868524       0.00000000
Si      -1.74257388      -1.56128247       2.83797194       0.00000000
Si       3.46853196       1.30118004       0.74362347       0.00000000
Si       3.16286640      -2.11680405      -0.68033196       0.00000000
Si       3.66236667       0.42777540      -1.46312438       0.00000000
