10
Lattice="16.28999089631971 0.0 0.0 0.0 16.28999089631971 0.0 0.0 0.0 34.51007289658418" Properties=species:S:1:pos:R:3:initial_magmoms:R:1 pbc="T T T"
Si       1.87317081       0.73360386       1.28577701       0.00000000
Si      -1.77399729      -0.72438372      -1.72653991       0.00000000
Si       0.49950027       2.54457945      -0.78279242       0.00000000
Si       0.73922391      -0.12452076      -2.63819302       0.00000000
Si      -1.77373665       1.69515369      -1.24916181       0.00000000
Si      -1.65646494      -2.58198129      -0.13148345       0.00000000
Si       0.29162358      -3.00141621       1.33350447       0.00000000
Si       0.52170354       1.80318897       3.17396220       0.00000000
Si      -1.01607246       0.00519651       3.55730030       0.00000000
Si      -2.94666552       0.25728426       2.24778034       0.00000000
