10
Lattice="16.28999089631971 0.0 0.0 0.0 16.28999089631971 0.0 0.0 0.0 34.51007289658418" Properties=species:S:1:pos:R:3:initial_magmoms:R:1 pbc="T T T"
Si       0.04256577      -0.28584063       2.34323526       0.00000000
Si       1.96503012      -1.29210651      -0.42119568       0.00000000
Si       0.75453651       2.26664666       0.32460193       0.00000000
Si      -2.02805613      -1.15022061      -0.84625648       0.00000000
Si       1.09452510      -3.21562971       0.56524080       0.00000000
Si       2.82318732       2.06338004      -0.95634367       0.00000000
Si      -0.09334170      -2.65080654       2.51602729       0.00000000
Si      -0.85305843       3.62671505      -0.73578968       0.00000000
Si       2.35457289      -0.11134215       3.03533516       0.00000000
Si       3.65493843      -0.73638945       1.12523607       0.00000000
