10
Lattice="16.28999089631971 0.0 0.0 0.0 16.28999089631971 0.0 0.0 0.0 34.51007289658418" Properties=species:S:1:pos:R:3:initial_magmoms:R:1 pbc="T T T"
Si      -0.04256577       0.28584063      -2.34323526       0.00000000
Si      -0.13590747      -2.36496591       0.17279203       0.00000000
Si      -1.40309028       1.35186867       1.40959923       0.00000000
Si       2.31200712       0.17449848       0.69209990       0.00000000
Si       0.71197074       2.55248729      -2.01863333       0.00000000
Si       1.92246435      -1.00626588      -2.76443093       0.00000000
Si       1.05195933      -2.92978908      -1.77799446       0.00000000
Si      -2.84576526      -0.28416276       2.32625629       0.00000000
Si       0.90525159      -2.92991940       2.18052017       0.00000000
Si       2.43141282      -1.19700549       2.68826716       0.00000000
