10
Lattice="16.28999089631971 0.0 0.0 0.0 16.28999089631971 0.0 0.0 0.0 34.51007289658418" Properties=species:S:1:pos:R:3:initial_magmoms:R:1 pbc="T T T"
Si      -1.75143564      -1.49649714      -0.29651071       0.00000000
Si       1.04115906      -0.56495349       2.00772814       0.00000000
Si       1.18786680      -0.56482317      -1.95078649       0.00000000
Si       0.13590747       2.36496591      -0.17279203       0.00000000
Si      -2.99677356       0.09822870      -1.60261417       0.00000000
Si       2.44791459       2.53946439       0.51930787       0.00000000
Si       0.09334170       2.65080654      -2.51602729       0.00000000
Si      -0.65168145      -1.26996840       3.40928652       0.00000000
Si      -2.16375183      -2.27879181       1.94633469       0.00000000
Si       3.15252225      -1.60607997      -1.30855368       0.00000000
