10
Lattice="16.28999089631971 0.0 0.0 0.0 16.28999089631971 0.0 0.0 0.0 34.51007289658418" Properties=species:S:1:pos:R:3:initial_magmoms:R:1 pbc="T T T"
Si      -1.34267067      -1.35067558       1.36459116       0.00000000
Si       1.37223769       1.35840681       1.36497077       0.00000000
Si       1.09547874      -1.43981446      -1.52667816       0.00000000
Si      -1.35088083       1.30144068      -1.45744747       0.00000000
Si       2.02635287       0.45105381      -2.79357958       0.00000000
Si       0.33613342       2.26390275      -2.87850892       0.00000000
Si      -2.50923015      -0.54706707      -2.72019410       0.00000000
Si      -2.70366759       0.00216657       2.72273584       0.00000000
Si       2.71765160      -2.71107044      -0.03181140       0.00000000
Si       2.71690226       2.71533123      -0.00382027       0.00000000
