10
Lattice="16.28999089631971 0.0 0.0 0.0 16.28999089631971 0.0 0.0 0.0 34.51007289658418" Properties=species:S:1:pos:R:3:initial_magmoms:R:1 pbc="T T T"
Si      -1.56419838      -0.82469428       1.46320886       0.00000000
Si      -1.09476945       1.89284913      -1.10261446       0.00000000
Si       1.15834932       1.84850775       1.26274664       0.00000000
Si       1.76466312      -1.74431365      -0.44426544       0.00000000
Si      -1.82860137      -1.11081673      -1.71779137       0.00000000
Si      -0.19710900      -2.19268808       2.73506450       0.00000000
Si       1.09937952       2.90292687      -1.89203282       0.00000000
Si      -3.40311132      -1.50781543       0.06159354       0.00000000
Si      -1.91638818       0.76792689      -3.11434578       0.00000000
Si       2.50923015       0.54706707       2.72019410       0.00000000
