10
Lattice="16.28999089631971 0.0 0.0 0.0 16.28999089631971 0.0 0.0 0.0 34.51007289658418" Properties=species:S:1:pos:R:3:initial_magmoms:R:1 pbc="T T T"
Si       1.51356647      -1.46510631      -0.97107948       0.00000000
Si      -1.94113269      -0.69605541      -1.07129679       0.00000000
Si       1.13953667       1.90351908      -0.84746433       0.00000000
Si       0.16871553      -0.07444530       2.36956646       0.00000000
Si      -2.72471427       1.51979184      -1.53028102       0.00000000
Si       1.22754014       2.02196367       2.60043898       0.00000000
Si       0.63451179       3.46287933       0.83949250       0.00000000
Si       3.39981164       1.51523064      -0.41450072       0.00000000
Si      -2.79122634      -2.47754610       0.35383198       0.00000000
Si       1.06101072      -1.42475598      -3.31956028       0.00000000
