10
Lattice="16.28999089631971 0.0 0.0 0.0 16.28999089631971 0.0 0.0 0.0 34.51007289658418" Properties=species:S:1:pos:R:3:initial_magmoms:R:1 pbc="T T T"
Si      -1.87317081      -0.73360386      -1.28577701       0.00000000
Si      -1.35146727       1.06958511       1.88818518       0.00000000
Si       0.93664242       0.43302078       2.36438995       0.00000000
Si       0.72291762      -1.88400366       2.08254602       0.00000000
Si      -1.37367054       1.81097559      -2.06856944       0.00000000
Si      -1.56750525       2.68438023       0.13817841       0.00000000
Si       2.98267817       1.33354827       1.55947656       0.00000000
Si      -2.88924327      -0.72840735       2.27152329       0.00000000
Si       2.22555609      -2.91299409      -1.28608761       0.00000000
Si       3.40240012      -0.66425733      -1.80570606       0.00000000
