10
Lattice="16.28999089631971 0.0 0.0 0.0 16.28999089631971 0.0 0.0 0.0 34.51007289658418" Properties=species:S:1:pos:R:3:initial_magmoms:R:1 pbc="T T T"
Si       0.26453331       1.73205054      -1.44238381       0.00000000
Si      -0.33863652       0.96966225       2.03757937       0.00000000
Si       2.16826416      -0.81897975       0.07761320       0.00000000
Si      -1.83772377      -1.32903594      -0.51054230       0.00000000
Si      -2.34748674      -1.96594236       1.72778228       0.00000000
Si      -1.19221623      -0.73482561       3.41311714       0.00000000
Si       0.36072576       0.81958248      -3.59695240       0.00000000
Si      -1.19096190      -2.76206724      -2.29216032       0.00000000
Si      -1.84682988       2.77317702       1.87389801       0.00000000
Si      -1.70012214       2.77330734      -2.08461663       0.00000000
