10
Lattice="16.28999089631971 0.0 0.0 0.0 16.28999089631971 0.0 0.0 0.0 34.51007289658418" Properties=species:S:1:pos:R:3:initial_magmoms:R:1 pbc="T T T"
Si       1.35780408       1.35629803       1.35600505       0.00000000
Si      -1.35808916      -1.35704974       1.35766154       0.00000000
Si       1.35801585      -1.35784795      -1.35721291       0.00000000
Si      -1.35790345       1.35838152      -1.35717840       0.00000000
Si       2.71267596       0.00134078       2.71418424       0.00000000
Si      -0.00026064       2.71470810      -2.71311443       0.00000000
Si      -2.71454021      -0.00045112      -2.71449483       0.00000000
Si      -2.71497646       2.71485471       0.00017255       0.00000000
Si       2.71485882       2.71511535      -0.00041412       0.00000000
Si       2.71469592      -2.71530994      -0.00027608       0.00000000
