10
Lattice="16.28999089631971 0.0 0.0 0.0 16.28999089631971 0.0 0.0 0.0 34.51007289658418" Properties=species:S:1:pos:R:3:initial_magmoms:R:1 pbc="T T T"
Si       1.35023086       1.35208629      -1.35731644       0.00000000
Si       1.33850206      -1.26863262       1.46381458       0.00000000
Si      -1.27535045       1.42847010       1.37181067       0.00000000
Si      -1.36395867      -1.36428750      -1.35597054       0.00000000
Si      -0.45911736      -2.21441373       2.83124247       0.00000000
Si       2.70762769       2.71134018       0.02429510       0.00000000
Si       2.70888202      -0.00389331      -2.71756623       0.00000000
Si      -0.00640686       2.71065600      -2.71666897       0.00000000
Si       2.71378531      -2.71420722       0.02902299       0.00000000
Si      -0.00640197      -2.71922454      -2.71663446       0.00000000
