10
Lattice="16.28999089631971 0.0 0.0 0.0 16.28999089631971 0.0 0.0 0.0 34.51007289658418" Properties=species:S:1:pos:R:3:initial_magmoms:R:1 pbc="T T T"
Si      -1.35742941       1.35593073      -1.35987018       0.00000000
Si       1.35871632      -1.35961227      -1.36024979       0.00000000
Si       1.34535852       1.37098269       1.36922242       0.00000000
Si      -1.35229806      -1.37731950       1.39324144       0.00000000
Si       2.71149170      -2.71321353      -0.00062118       0.00000000
Si      -2.70993924      -2.71621089       0.00303689       0.00000000
Si       2.71028641       2.71590138      -0.00255375       0.00000000
Si      -2.71419093       2.71345788      -0.00134589       0.00000000
Si       0.00114030       2.71258317      -2.71659995       0.00000000
Si      -2.71386513      -0.00224802      -2.71694505       0.00000000
