10
Lattice="16.28999089631971 0.0 0.0 0.0 16.28999089631971 0.0 0.0 0.0 34.51007289658418" Properties=species:S:1:pos:R:3:initial_magmoms:R:1 pbc="T T T"
Si       1.39523850      -1.54922787       0.91082486       0.00000000
Si      -2.21618934      -0.00864999       0.73430574       0.00000000
Si       0.47679201       2.16704241       0.72895668       0.00000000
Si      -0.04391784      -0.51538302      -2.28063395       0.00000000
Si      -2.80921769       1.43226567      -1.02664073       0.00000000
Si      -1.15498055       3.08728080      -0.63284607       0.00000000
Si       0.42516900      -3.44122992      -0.01635778       0.00000000
Si      -2.30419281      -0.12709458      -2.71359757       0.00000000
Si       1.29411018      -1.05396300       3.18659289       0.00000000
Si       3.37525542      -1.33017624      -0.25941236       0.00000000
