10
Lattice="16.28999089631971 0.0 0.0 0.0 16.28999089631971 0.0 0.0 0.0 34.51007289658418" Properties=species:S:1:pos:R:3:initial_magmoms:R:1 pbc="T T T"
Si       1.35754344      -1.35720461      -1.36176824       0.00000000
Si      -1.35686089       1.35988920      -1.36014626       0.00000000
Si      -1.37297659      -1.34487959       1.36028430       0.00000000
Si       1.36332639       1.36490652       1.38551118       0.00000000
Si      -0.00653229      -2.62913090       2.72892005       0.00000000
Si       2.71241532      -2.71216187      -0.00358905       0.00000000
Si       2.70985779       2.71790505      -0.00113883       0.00000000
Si      -2.71441759       2.71482624       0.00051765       0.00000000
Si      -2.72064387      -2.71053287      -0.00369258       0.00000000
Si      -0.00026064      -2.71350264      -2.71777329       0.00000000
