10
Lattice="16.28999089631971 0.0 0.0 0.0 16.28999089631971 0.0 0.0 0.0 34.51007289658418" Properties=species:S:1:pos:R:3:initial_magmoms:R:1 pbc="T T T"
Si       0.80804916      -1.91966247      -1.27673537       0.00000000
Si      -2.00964680       0.80392779      -1.21323680       0.00000000
Si       1.36550925       2.08878525      -0.09276313       0.00000000
Si       0.64928682      -1.68930558       1.86613323       0.00000000
Si       2.50216029      -0.15332148       1.79521500       0.00000000
Si       1.93477959      -0.30923307      -2.73482128       0.00000000
Si      -3.14397163       1.26397368       1.04734679       0.00000000
Si       3.19438755       1.04414013      -1.22138118       0.00000000
Si      -0.91256580       2.35714671      -2.72660787       0.00000000
Si       0.93006126      -3.62392227       0.59478144       0.00000000
