10
Lattice="16.28999089631971 0.0 0.0 0.0 16.28999089631971 0.0 0.0 0.0 34.51007289658418" Properties=species:S:1:pos:R:3:initial_magmoms:R:1 pbc="T T T"
Si      -1.35021620      -1.35808101       1.39519471       0.00000000
Si       1.36130643       1.36240342       1.39257195       0.00000000
Si       1.56828717      -1.21448466      -1.39732744       0.00000000
Si      -1.62217286       1.27125598      -1.49486676       0.00000000
Si      -2.69018666      -2.70640431       0.02967178       0.00000000
Si       2.70829395       2.71286234       0.00201539       0.00000000
Si      -2.71765160       2.71107044       0.03181140       0.00000000
Si       2.74947507      -2.71031391       0.02212442       0.00000000
Si      -2.70582506      -0.00179190       2.75496136       0.00000000
Si       0.00724905      -2.71622718       2.75351194       0.00000000
