10
Lattice="16.28999089631971 0.0 0.0 0.0 16.28999089631971 0.0 0.0 0.0 34.51007289658418" Properties=species:S:1:pos:R:3:initial_magmoms:R:1 pbc="T T T"
Si      -1.35147235       1.35365243      -1.35762703       0.00000000
Si       1.34766729       1.36565327       1.36397688       0.00000000
Si       1.36229408      -1.36001952      -1.35641917       0.00000000
Si      -1.36492789      -1.34491869       1.37177616       0.00000000
Si       0.02404158      -2.64604986       2.72056861       0.00000000
Si      -2.70914611      -0.00331821      -2.71404620       0.00000000
Si      -2.70901579       2.71489859       0.00496945       0.00000000
Si       0.00540677       2.71188494      -2.71390816       0.00000000
Si      -2.71028641      -2.71590138       0.00255375       0.00000000
Si       2.72064387       2.71053287       0.00369258       0.00000000
