10
Lattice="10.86 0.0 0.0 0.0 10.86 0.0 0.0 0.0 10.86" Properties=species:S:1:pos:R:3:initial_magmoms:R:1 pbc="T T T"
Si      -1.49325000      -1.06631082       1.37908968       0.00000000
Si       1.40600076      -1.22013186      -1.36068198       0.00000000
Si      -1.30899924       1.49486814      -1.36068198       0.00000000
Si       1.40600076       1.49486814       1.35431802       0.00000000
Si      -2.47818684      -2.57589426      -0.14927070       0.00000000
Si       0.04850076      -2.57763186      -2.71818198       0.00000000
Si       2.67314556      -2.63795916       0.13670568       0.00000000
Si      -2.66649924       0.13736814      -2.71818198       0.00000000
Si      -2.62183206       0.32088042       2.75113122       0.00000000
Si       2.76350076       0.13736814      -2.71818198       0.00000000
