10
Lattice="16.28999089631971 0.0 0.0 0.0 16.28999089631971 0.0 0.0 0.0 34.35334932831803" Properties=species:S:1:pos:R:3:initial_magmoms:R:1 pbc="T T T"
Si      -0.09501957      -0.75882078      -2.19016466       0.00000000
Si      -2.05897455       0.07521093       1.06636291       0.00000000
Si       0.71394183       2.28850065      -0.03479996       0.00000000
Si       1.54359153      -1.43607753       1.14829570       0.00000000
Si      -1.23266430       0.71666226       3.17823624       0.00000000
Si       1.16092314       1.12195746       3.10520098       0.00000000
Si       2.70016524       2.05695459       1.33772017       0.00000000
Si       2.22055506      -0.49603050      -2.90990208       0.00000000
Si      -3.02958488       2.11219398       0.43103171       0.00000000
Si       3.58158456      -0.19960137       1.05196885       0.00000000
