10
Lattice="16.28999089631971 0.0 0.0 0.0 16.28999089631971 0.0 0.0 0.0 34.35334932831803" Properties=species:S:1:pos:R:3:initial_magmoms:R:1 pbc="T T T"
Si       1.66278546      -1.57215604      -0.52230862       0.00000000
Si       0.96977628       2.12211459      -0.33415522       0.00000000
Si      -0.58249782      -0.27971559       2.33912086       0.00000000
Si      -1.71817146      -0.77150092      -1.56431499       0.00000000
Si       0.42746589      -3.53480687       0.02713916       0.00000000
Si      -1.14966675      -3.05392607      -1.72017622       0.00000000
Si       1.44678006       2.86502004       1.82715261       0.00000000
Si      -3.76880553      -0.39267045      -0.34569795       0.00000000
Si       3.64189014      -1.15082171       0.60207714       0.00000000
Si      -2.42087319      -1.69959109       2.51336115       0.00000000
