10
Lattice="16.28999089631971 0.0 0.0 0.0 16.28999089631971 0.0 0.0 0.0 34.35334932831803" Properties=species:S:1:pos:R:3:initial_magmoms:R:1 pbc="T T T"
Si       2.16510390       0.51920954      -0.73684540       0.00000000
Si      -0.74230272       2.22877662      -0.27286881       0.00000000
Si      -1.64471985      -0.76912813      -1.52419025       0.00000000
Si       0.02847492      -0.87408460       2.22578910       0.00000000
Si       0.96770745       3.23263158       1.04289956       0.00000000
Si       2.04551901      -0.27361010      -2.92759407       0.00000000
Si      -1.84003695       0.31876761       3.07888630       0.00000000
Si      -3.60364122       0.41816267      -0.88463359       0.00000000
Si       3.69838386      -0.38215688       0.78469964       0.00000000
Si      -0.34489188       2.85102204      -2.59357626       0.00000000
