10
Lattice="16.28999089631971 0.0 0.0 0.0 16.28999089631971 0.0 0.0 0.0 34.35334932831803" Properties=species:S:1:pos:R:3:initial_magmoms:R:1 pbc="T T T"
Si      -1.01905353       1.25807670      -1.71454227       0.00000000
Si      -1.63167156       0.39162789       1.65789357       0.00000000
Si       2.18090520       0.87803100       0.19787540       0.00000000
Si      -0.43427511      -2.32179415      -0.12185140       0.00000000
Si      -3.34168173      -0.61222707       0.34212520       0.00000000
Si      -2.94427089       0.01001835      -1.97858226       0.00000000
Si       2.44244115       1.75190805      -1.92347946       0.00000000
Si       1.09900485      -3.22316058       1.39969365       0.00000000
Si      -0.78631830       3.46975371      -0.94873698       0.00000000
Si       1.70230500       0.08465913      -3.39538389       0.00000000
