10
Lattice="16.28999089631971 0.0 0.0 0.0 16.28999089631971 0.0 0.0 0.0 34.35334932831803" Properties=species:S:1:pos:R:3:initial_magmoms:R:1 pbc="T T T"
Si       0.11958489       0.79281964       2.19074866       0.00000000
Si       2.11001112       0.85252412      -0.57662129       0.00000000
Si      -1.66713489       1.35441413      -1.10030404       0.00000000
Si      -0.34311627      -2.38836717       0.11869089       0.00000000
Si      -2.04551901       0.27361010       2.92759407       0.00000000
Si      -3.50551026      -0.06546136      -0.92606376       0.00000000
Si       3.72897648      -0.22019845       0.76999640       0.00000000
Si       2.55725307       0.48330801      -2.83734777       0.00000000
Si       1.70080632      -3.46875255      -0.46105656       0.00000000
Si       0.55386000       3.11461379       2.31260006       0.00000000
