10
Lattice="16.28999089631971 0.0 0.0 0.0 16.28999089631971 0.0 0.0 0.0 34.35334932831803" Properties=species:S:1:pos:R:3:initial_magmoms:R:1 pbc="T T T"
Si       0.98311779      -1.15593840       1.82595024       0.00000000
Si      -2.36579670      -0.48553974       0.37799011       0.00000000
Si       1.06411167      -1.21495707      -1.84388270       0.00000000
Si       0.95457771       2.85291657       0.09993395       0.00000000
Si      -2.74950765       1.89343557       0.86955246       0.00000000
Si       3.28702878      -0.85330278       1.08944838       0.00000000
Si      -2.30195619       2.15627472      -1.74078824       0.00000000
Si       3.18648690       2.11049982       0.14211989       0.00000000
Si       0.01334151      -3.27805299       2.16010546       0.00000000
Si       0.65296836       3.22621821       2.43974188       0.00000000
