10
Lattice="16.28999089631971 0.0 0.0 0.0 16.28999089631971 0.0 0.0 0.0 34.35334932831803" Properties=species:S:1:pos:R:3:initial_magmoms:R:1 pbc="T T T"
Si      -1.35723393      -1.35545832       1.35623664       0.00000000
Si       1.35811359       1.35814617       1.35658017       0.00000000
Si       1.35741312      -1.35822762      -1.35723288       0.00000000
Si      -1.35782037       1.35762489      -1.35743900       0.00000000
Si       2.71309950      -0.00223173      -2.71501542       0.00000000
Si      -2.71303434       0.00239463      -2.71649262       0.00000000
Si      -2.71480995       2.71480995      -0.00030918       0.00000000
Si      -0.00052128       2.71415835       2.71546202       0.00000000
Si      -2.71513575      -2.71458189       0.00044659       0.00000000
Si      -0.00043983      -2.71611315      -2.71374435       0.00000000
