10
Lattice="16.28999089631971 0.0 0.0 0.0 16.28999089631971 0.0 0.0 0.0 34.35334932831803" Properties=species:S:1:pos:R:3:initial_magmoms:R:1 pbc="T T T"
Si      -0.57897918      -2.12947767      -0.94516423       0.00000000
Si       1.08916569       0.28186587       2.12252287       0.00000000
Si      -0.38149551       1.79721054      -1.60509244       0.00000000
Si      -2.15707293       0.47659653       1.18179023       0.00000000
Si       2.42020530      -0.89191008      -1.04643796       0.00000000
Si       1.56683736       2.55335976       1.75356770       0.00000000
Si      -3.65244606      -0.23296329      -0.43711226       0.00000000
Si       0.99733896      -3.58466337       0.11693887       0.00000000
Si      -2.64365523       1.19568600      -2.33565117       0.00000000
Si       3.23622027       1.15882173      -1.78125651       0.00000000
