10
Lattice="16.28999089631971 0.0 0.0 0.0 16.28999089631971 0.0 0.0 0.0 34.35334932831803" Properties=species:S:1:pos:R:3:initial_magmoms:R:1 pbc="T T T"
Si       0.30160935      -0.37330164      -2.33980793       0.00000000
Si      -2.32569072      -0.38380869       0.39365525       0.00000000
Si       1.57631814      -1.45518570       1.06210309       0.00000000
Si       0.57897918       2.12947767       0.94516423       0.00000000
Si       2.99918448       1.23756759      -0.10127373       0.00000000
Si       2.53351854      -1.11571839      -2.29762199       0.00000000
Si      -3.07346688       1.89651438       0.50805197       0.00000000
Si      -1.57809375       2.60607420       2.12695446       0.00000000
Si       3.36741993      -2.04011073      -0.36490148       0.00000000
Si      -3.40247601      -1.33278264      -1.57018942       0.00000000
