10
Lattice="16.28999089631971 0.0 0.0 0.0 16.28999089631971 0.0 0.0 0.0 34.35334932831803" Properties=species:S:1:pos:R:3:initial_magmoms:R:1 pbc="T T T"
Si       1.65125214      -1.52647074       0.57974745       0.00000000
Si      -1.40245497       0.04406445       1.88476321       0.00000000
Si       0.47767167       2.27149389      -0.36895518       0.00000000
Si      -1.08916569      -0.28186587      -2.12252287       0.00000000
Si      -3.24623862       0.19473066      -0.94073264       0.00000000
Si       2.88606672      -1.64232522      -1.40508713       0.00000000
Si       0.53470296      -3.58334388       0.24164159       0.00000000
Si       1.33103961      -1.17377595      -3.16896083       0.00000000
Si      -1.56625092       3.35187927       0.21079227       0.00000000
Si      -1.73356551       2.35524078       2.37038243       0.00000000
