10
Lattice="16.28999089631971 0.0 0.0 0.0 16.28999089631971 0.0 0.0 0.0 34.35334932831803" Properties=species:S:1:pos:R:3:initial_magmoms:R:1 pbc="T T T"
Si      -0.48309624       1.48613670      -1.71966092       0.00000000
Si       0.37971990      -1.80569763      -1.47399998       0.00000000
Si       1.89744291       0.82492560       1.20267708       0.00000000
Si      -2.00521755      -0.90486063       0.97075749       0.00000000
Si       1.42081380      -0.92209545       2.66626799       0.00000000
Si      -1.11197169      -0.38473722       3.14103154       0.00000000
Si      -2.50214400       0.61326963      -2.59299226       0.00000000
Si      -3.68448849      -0.15232779      -0.64185834       0.00000000
Si       1.21953456       1.21396338      -3.34203310       0.00000000
Si      -0.58572324       3.66264360      -0.74557116       0.00000000
