10
Lattice="16.28999089631971 0.0 0.0 0.0 16.28999089631971 0.0 0.0 0.0 34.35334932831803" Properties=species:S:1:pos:R:3:initial_magmoms:R:1 pbc="T T T"
Si      -1.31567814       1.32478425      -1.53655747       0.00000000
Si       1.40841711      -1.36666584      -1.52381237       0.00000000
Si       0.62635050       1.99927170       1.35221729       0.00000000
Si      -0.97060707      -2.01202677       1.72137859       0.00000000
Si      -2.52040509      -2.70062136      -0.08742932       0.00000000
Si       2.66220954       2.59537167      -0.23827496       0.00000000
Si      -2.71205694       2.60535744      -0.05149570       0.00000000
Si       2.59426395      -2.85047307      -0.00752339       0.00000000
Si      -2.66393628      -0.01552437      -2.91996762       0.00000000
Si       0.05105286       2.69839260      -2.92082645       0.00000000
