10
Lattice="16.28999089631971 0.0 0.0 0.0 16.28999089631971 0.0 0.0 0.0 34.35334932831803" Properties=species:S:1:pos:R:3:initial_magmoms:R:1 pbc="T T T"
Si      -0.56850471       2.28242515       0.15586123       0.00000000
Si      -1.55694933      -1.41328782       1.07189380       0.00000000
Si       1.57713264      -0.48088080       1.74731538       0.00000000
Si       1.51402518       0.28036719      -2.24303449       0.00000000
Si      -0.49484133      -0.44719308       2.94844656       0.00000000
Si      -0.21491397       2.11366075      -2.30318724       0.00000000
Si       2.81245221       1.48177002       1.19786761       0.00000000
Si      -0.27538245      -3.40662996       0.60932570       0.00000000
Si       1.14966675       3.05392607       1.72017622       0.00000000
Si       1.98677727      -2.80510542       1.33988443       0.00000000
