10
Lattice="16.28999089631971 0.0 0.0 0.0 16.28999089631971 0.0 0.0 0.0 34.35334932831803" Properties=species:S:1:pos:R:3:initial_magmoms:R:1 pbc="T T T"
Si       1.23531957       1.96265082      -0.54944778       0.00000000
Si       0.40964463      -2.32422462      -0.40743095       0.00000000
Si      -2.07197397       0.03368772       1.20113118       0.00000000
Si      -1.57713264       0.48088080      -1.74731538       0.00000000
Si      -3.13408197      -0.93240702      -0.67542158       0.00000000
Si      -0.42746589       3.53480687      -0.02713916       0.00000000
Si       0.31405491      -0.48769002       3.53097663       0.00000000
Si      -1.85251509      -2.92574916      -1.13798969       0.00000000
Si      -1.76026482      -1.41771870       2.92999880       0.00000000
Si      -2.14563735       2.76330595      -1.59145415       0.00000000
