10
Lattice="16.28999089631971 0.0 0.0 0.0 16.28999089631971 0.0 0.0 0.0 34.35334932831803" Properties=species:S:1:pos:R:3:initial_magmoms:R:1 pbc="T T T"
Si       0.74013615       1.66724892       1.47190443       0.00000000
Si      -1.89402201       1.29987684      -0.52948847       0.00000000
Si       1.14955272      -0.53566407      -2.00445035       0.00000000
Si      -0.14615388      -2.34674880       0.50616253       0.00000000
Si       0.30108807      -2.71596491      -1.75456394       0.00000000
Si      -2.72135853       1.17341757       1.68084162       0.00000000
Si      -0.06711480       0.85960701      -3.42729816       0.00000000
Si      -2.37102579       0.55697139      -2.69079630       0.00000000
Si       2.93045697       1.97649828       0.85306285       0.00000000
Si       0.47860020       0.79337187       3.59325929       0.00000000
