10
Lattice="16.28999089631971 0.0 0.0 0.0 16.28999089631971 0.0 0.0 0.0 34.35334932831803" Properties=species:S:1:pos:R:3:initial_magmoms:R:1 pbc="T T T"
Si      -1.32369347      -1.35809730      -1.34888158       0.00000000
Si      -1.35295196       1.35980775       1.35431285       0.00000000
Si       1.36054569      -1.35369900       1.35517168       0.00000000
Si       1.37209530       1.35291708      -1.37176436       0.00000000
Si      -2.60369816      -0.00482184      -2.71068346       0.00000000
Si       0.14095900      -2.49368949      -2.85787734       0.00000000
Si      -2.71236875       0.00221544       2.71185491       0.00000000
Si       0.00204765      -2.71249351       2.71188926       0.00000000
Si      -2.71225472      -2.71469103      -0.00618361       0.00000000
Si      -2.71289003       2.71603170      -0.00663020       0.00000000
