10
Lattice="16.28999089631971 0.0 0.0 0.0 16.28999089631971 0.0 0.0 0.0 34.35334932831803" Properties=species:S:1:pos:R:3:initial_magmoms:R:1 pbc="T T T"
Si      -1.35663120      -1.35677781      -1.35712982       0.00000000
Si      -1.35690813       1.35713619       1.35740465       0.00000000
Si       1.35759231      -1.35749457       1.35795430       0.00000000
Si       1.35814617       1.35811359      -1.35740465       0.00000000
Si      -2.71340901       0.00135207      -2.71432835       0.00000000
Si      -0.00092853       2.71467963       2.71401917       0.00000000
Si      -2.71485882       2.71409319       0.00048095       0.00000000
Si      -2.71476108      -0.00096111       2.71446577       0.00000000
Si       0.00120546       2.71241532      -2.71704227       0.00000000
Si      -2.71438641      -2.71525304      -0.00013741       0.00000000
