10
Lattice="16.28999089631971 0.0 0.0 0.0 16.28999089631971 0.0 0.0 0.0 34.35334932831803" Properties=species:S:1:pos:R:3:initial_magmoms:R:1 pbc="T T T"
Si       0.53126430      -0.14643081      -2.28032511       0.00000000
Si       1.44125954       1.38577401       1.23305370       0.00000000
Si      -1.76280005       0.70929918      -1.43207174       0.00000000
Si      -1.36718111      -1.48590864       1.29972672       0.00000000
Si       2.66655587      -0.42849216      -1.48610959       0.00000000
Si      -2.56224809      -1.70926083      -1.81813489       0.00000000
Si      -0.42402269      -2.20301073      -2.80672178       0.00000000
Si      -0.10457463       2.60579727       2.63166865       0.00000000
Si       2.60861234      -0.12816972       2.63864582       0.00000000
Si      -2.80272107       2.50318656      -0.10184060       0.00000000
