10
Lattice="16.28999089631971 0.0 0.0 0.0 16.28999089631971 0.0 0.0 0.0 34.35334932831803" Properties=species:S:1:pos:R:3:initial_magmoms:R:1 pbc="T T T"
Si      -0.91895148      -1.83094713      -1.16401855       0.00000000
Si      -1.44274014       1.25146296       1.46050254       0.00000000
Si       1.27420380      -1.43980794       1.47185633       0.00000000
Si       1.55261619       1.26884439      -1.43651500       0.00000000
Si      -2.67600717      -2.69333973       0.09656045       0.00000000
Si       2.59428024      -2.80930824       0.08789653       0.00000000
Si       2.73411360       2.68973964       0.09178533       0.00000000
Si      -3.02233257       2.36688813       0.08794462       0.00000000
Si      -0.08876421       2.61871524       2.83183749       0.00000000
Si       2.62695798      -0.09866853       2.83712791       0.00000000
