10
Lattice="16.28999089631971 0.0 0.0 0.0 16.28999089631971 0.0 0.0 0.0 34.35334932831803" Properties=species:S:1:pos:R:3:initial_magmoms:R:1 pbc="T T T"
Si      -1.35617508       1.35573525      -1.36255766       0.00000000
Si       1.36036161      -1.36081773      -1.36121787       0.00000000
Si       1.37850867       1.34241003       1.36654265       0.00000000
Si      -1.37404521      -1.36622601       1.38526523       0.00000000
Si      -0.08588088       2.58541848       2.72102726       0.00000000
Si      -2.71120986       2.71090035      -0.00697373       0.00000000
Si      -2.71182888      -2.71772586      -0.00034353       0.00000000
Si       0.00190593       2.71202436      -2.71920653       0.00000000
Si      -2.71243161      -0.00275301      -2.71951571       0.00000000
Si       2.72056032       2.71225242      -0.00553089       0.00000000
