10
Lattice="16.28999089631971 0.0 0.0 0.0 16.28999089631971 0.0 0.0 0.0 34.35334932831803" Properties=species:S:1:pos:R:3:initial_magmoms:R:1 pbc="T T T"
Si      -2.12156073      -0.69473592      -0.76164853       0.00000000
Si      -0.07871328       2.43009333       0.27242221       0.00000000
Si       1.25809299      -0.84304008      -1.94020955       0.00000000
Si       0.42800346      -0.99386919       2.23004892       0.00000000
Si       1.55492937       0.89695998       3.10994175       0.00000000
Si      -2.05457625      -3.06818892      -0.99222834       0.00000000
Si       1.96555140      -3.00770415      -1.44291018       0.00000000
Si       3.08250783       0.54496566      -2.31404290       0.00000000
Si      -1.88882550       2.99042046       1.73848657       0.00000000
Si      -3.82419153      -0.42256260       0.86072365       0.00000000
