10
Lattice="16.28999089631971 0.0 0.0 0.0 16.28999089631971 0.0 0.0 0.0 34.35334932831803" Properties=species:S:1:pos:R:3:initial_magmoms:R:1 pbc="T T T"
Si      -0.98624547       1.95818085       0.66504686       0.00000000
Si       2.26810557       0.36732321       0.12171398       0.00000000
Si      -0.23273523      -1.89034047       1.32617744       0.00000000
Si      -0.67800609      -0.53514279      -2.21036444       0.00000000
Si      -2.96535015       1.53684651      -0.45933889       0.00000000
Si      -0.17330931      -3.38841774      -0.49348614       0.00000000
Si       3.18335922      -1.39986486      -1.04193767       0.00000000
Si       2.49688233       2.45838321      -0.95200055       0.00000000
Si      -1.66941549      -2.64121173      -2.10197956       0.00000000
Si      -2.23894647       1.09764954      -2.84439021       0.00000000
