10
Lattice="16.28999089631971 0.0 0.0 0.0 16.28999089631971 0.0 0.0 0.0 34.35334932831803" Properties=species:S:1:pos:R:3:initial_magmoms:R:1 pbc="T T T"
Si      -2.04468822      -0.37424320       1.09236841       0.00000000
Si       0.46162602      -0.87809127      -2.16529282       0.00000000
Si       1.50714495      -1.39784490       1.25073744       0.00000000
Si       0.56438334       2.37342042       0.13792877       0.00000000
Si      -2.37408831       1.60042734       2.31514221       0.00000000
Si      -1.72770111       3.20370543       0.57157135       0.00000000
Si       1.51280866       0.93586050      -3.29167107       0.00000000
Si       3.35147921      -0.11629431       1.76164074       0.00000000
Si       2.20253899       2.78456373      -1.73632231       0.00000000
Si       2.13908130      -2.71620179      -1.96624940       0.00000000
