10
Lattice="16.28999089631971 0.0 0.0 0.0 16.28999089631971 0.0 0.0 0.0 34.35334932831803" Properties=species:S:1:pos:R:3:initial_magmoms:R:1 pbc="T T T"
Si      -0.32940009       1.97467054       1.22277380       0.00000000
Si       2.04468822       0.37424320      -1.09236841       0.00000000
Si      -0.22877676      -2.09106000       1.07371453       0.00000000
Si      -2.63466315       1.68009847       1.36716101       0.00000000
Si       0.31698711       3.57794863      -0.52079707       0.00000000
Si      -2.49688233      -2.45838321       0.95200055       0.00000000
Si       3.55183317      -1.02360170       0.15836903       0.00000000
Si      -3.48312780      -0.50020237       1.61704741       0.00000000
Si       2.60907156       2.74766362      -0.95443964       0.00000000
Si       0.68647689      -3.85824807      -0.08993712       0.00000000
