10
Lattice="16.28999089631971 0.0 0.0 0.0 16.28999089631971 0.0 0.0 0.0 34.35334932831803" Properties=species:S:1:pos:R:3:initial_magmoms:R:1 pbc="T T T"
Si      -1.15061157      -2.02318884      -0.03449078       0.00000000
Si      -0.46913571       0.75663792       2.18305351       0.00000000
Si      -0.66818322       1.77236829      -1.44442173       0.00000000
Si       2.38287059      -0.13460427      -0.30863066       0.00000000
Si       1.34390871       2.95839432      -1.72460781       0.00000000
Si       2.99757407       2.16142236      -0.30182870       0.00000000
Si       0.39661263       2.92605867       2.38838359       0.00000000
Si      -0.41275602      -3.38853896      -1.75081943       0.00000000
Si       0.15871347      -0.95901348       3.78684052       0.00000000
Si       3.43203326      -0.94924762       1.65851193       0.00000000
