10
Lattice="16.28999089631971 0.0 0.0 0.0 16.28999089631971 0.0 0.0 0.0 34.35334932831803" Properties=species:S:1:pos:R:3:initial_magmoms:R:1 pbc="T T T"
Si       2.01209193       1.18602603      -0.28018607       0.00000000
Si      -0.82963341      -0.45520776      -2.17164819       0.00000000
Si      -1.35399222       1.76238252       0.83025221       0.00000000
Si       0.66818322      -1.77236829       1.44442173       0.00000000
Si       0.19904751      -1.01573037       3.62747524       0.00000000
Si       3.05105381      -1.90697256       1.13579107       0.00000000
Si      -3.13489647      -0.74977983      -2.02726098       0.00000000
Si       0.16772184       3.27997521      -1.93811399       0.00000000
Si      -0.30159306       2.76855066       2.65740482       0.00000000
Si       3.66575729       0.38905407       1.14259304       0.00000000
