10
Lattice="16.28999089631971 0.0 0.0 0.0 16.28999089631971 0.0 0.0 0.0 34.35334932831803" Properties=species:S:1:pos:R:3:initial_magmoms:R:1 pbc="T T T"
Si      -1.32271542       1.33776738      -1.48035536       0.00000000
Si       1.37556018      -1.40237352      -1.48076760       0.00000000
Si      -1.78036668      -0.72169587       1.53817208       0.00000000
Si       1.84213836       1.11793383       1.27461303       0.00000000
Si      -2.66185116      -2.67375915      -0.04160193       0.00000000
Si      -2.62699056       2.79117747       0.03644892       0.00000000
Si      -0.46204956      -0.46547046       3.83338933       0.00000000
Si       3.46819054      -0.88461216       1.52549568       0.00000000
Si       2.77846021      -2.73331539      -0.02985308       0.00000000
Si       0.03025053       2.67344964      -2.86641072       0.00000000
