10
Lattice="16.28999089631971 0.0 0.0 0.0 16.28999089631971 0.0 0.0 0.0 34.35334932831803" Properties=species:S:1:pos:R:3:initial_magmoms:R:1 pbc="T T T"
Si      -1.27405719      -0.04543281      -1.94687410       0.00000000
Si       0.91054584      -2.14899309      -0.06475610       0.00000000
Si       1.78641027       1.50825852      -0.06441257       0.00000000
Si      -1.57112163      -0.05823675       1.74329604       0.00000000
Si      -2.66807394      -1.93701132       0.80507119       0.00000000
Si       0.25998840      -1.06678323      -3.40819769       0.00000000
Si       2.73039948      -2.03403456       1.37818844       0.00000000
Si      -3.20179950      -1.22267853      -1.34527791       0.00000000
Si       2.46775581       1.50692274       2.31950509       0.00000000
Si      -0.98451873      -3.57757722       0.40980133       0.00000000
