10
Lattice="16.28999089631971 0.0 0.0 0.0 16.28999089631971 0.0 0.0 0.0 34.35334932831803" Properties=species:S:1:pos:R:3:initial_magmoms:R:1 pbc="T T T"
Si      -1.35819504       1.35746199      -1.36606170       0.00000000
Si       1.35849708      -1.36008468      -1.36606170       0.00000000
Si      -1.36513458      -1.36322865       1.37145518       0.00000000
Si       1.37345130       1.36324494       1.38100541       0.00000000
Si       0.12298528      -2.65421115       2.72752005       0.00000000
Si      -2.71065600       2.71402803      -0.00924106       0.00000000
Si       2.71605518       2.71557558      -0.00618361       0.00000000
Si       2.71501262      -2.71829601      -0.00827916       0.00000000
Si      -2.71370223      -2.71981098      -0.00635537       0.00000000
Si      -2.71393029      -0.00097740      -2.72291670       0.00000000
