10
Lattice="16.28999089631971 0.0 0.0 0.0 16.28999089631971 0.0 0.0 0.0 34.35334932831803" Properties=species:S:1:pos:R:3:initial_magmoms:R:1 pbc="T T T"
Si       1.48273209       1.20122460       1.41821011       0.00000000
Si       1.42371342      -1.26240984      -1.50457448       0.00000000
Si      -1.26385965       1.44500445      -1.51319718       0.00000000
Si      -1.69259616      -0.73026441       1.62694118       0.00000000
Si      -2.58209532      -2.50126434       0.02047461       0.00000000
Si      -2.72824920       2.68801290      -0.15871256       0.00000000
Si       2.91183328      -2.55339234      -0.14850961       0.00000000
Si       2.73098592       2.76747552      -0.04359442       0.00000000
Si       0.07514577      -2.61899217      -2.88238503       0.00000000
Si      -2.64236832       0.10259442      -2.87973982       0.00000000
