10
Lattice="16.28999089631971 0.0 0.0 0.0 16.28999089631971 0.0 0.0 0.0 34.35334932831803" Properties=species:S:1:pos:R:3:initial_magmoms:R:1 pbc="T T T"
Si       0.13243770      -1.50592905       1.75329287       0.00000000
Si       2.14728264      -0.54349956      -0.79871582       0.00000000
Si       0.29792781       2.05056891       1.12871428       0.00000000
Si      -1.49397219       1.38981393      -2.41428603       0.00000000
Si      -1.04682798       3.26757852      -0.34140378       0.00000000
Si       2.96526870       1.61735265      -1.24458819       0.00000000
Si      -0.21853035      -3.63783393      -0.22381220       0.00000000
Si      -1.91163150      -1.53800406       2.76781655       0.00000000
Si       2.57323356       2.64134205       1.02551676       0.00000000
Si      -0.60569478       2.16283959       3.28758301       0.00000000
