10
Lattice="16.28999089631971 0.0 0.0 0.0 16.28999089631971 0.0 0.0 0.0 34.35334932831803" Properties=species:S:1:pos:R:3:initial_magmoms:R:1 pbc="T T T"
Si      -1.47331647       1.21388193       1.44726963       0.00000000
Si       1.24795916      -1.46947203       1.45591637       0.00000000
Si      -0.85431276      -1.90474083      -1.22073977       0.00000000
Si       0.89046027       1.95675058      -1.31309709       0.00000000
Si      -2.78655111       2.52236708      -0.02389964       0.00000000
Si      -1.69323147      -1.00800891      -3.23482452       0.00000000
Si      -0.11357388       2.57746474       2.81797934       0.00000000
Si       2.59916791      -0.13981707       2.81983442       0.00000000
Si       2.64187866      -2.78547597       0.09947705       0.00000000
Si      -2.72204271      -2.77837353       0.07813330       0.00000000
