10
Lattice="16.28999089631971 0.0 0.0 0.0 16.28999089631971 0.0 0.0 0.0 34.35334932831803" Properties=species:S:1:pos:R:3:initial_magmoms:R:1 pbc="T T T"
Si      -1.35751086      -1.35576783      -1.35747336       0.00000000
Si       1.36114353      -1.35553977       1.35620228       0.00000000
Si       1.35816246       1.35938580      -1.35754206       0.00000000
Si      -1.35672894       1.36289099       1.35898491       0.00000000
Si       2.71360449      -2.71210581      -0.00061836       0.00000000
Si      -2.71559187      -2.71205694      -0.00082448       0.00000000
Si       0.00009774      -2.71293660      -2.71498107       0.00000000
Si      -2.71407690       0.00190593      -2.71446577       0.00000000
Si       2.71515204       0.00198738      -2.71501542       0.00000000
Si       0.00048870       2.71640704      -2.71474059       0.00000000
