10
Lattice="16.28999089631971 0.0 0.0 0.0 16.28999089631971 0.0 0.0 0.0 34.35334932831803" Properties=species:S:1:pos:R:3:initial_magmoms:R:1 pbc="T T T"
Si       0.61152660       1.98998640       1.09762448       0.00000000
Si      -2.25642564       0.59544837      -0.36984837       0.00000000
Si       0.31154625      -1.98711936       1.28502210       0.00000000
Si       1.19063188      -0.51396579      -2.00795439       0.00000000
Si       0.80058834      -2.82602178      -2.30954261       0.00000000
Si       1.90307015       3.19368123      -0.44308975       0.00000000
Si       3.51222893      -0.27960156      -1.32428800       0.00000000
Si       1.50809629      -3.48102639      -0.13270706       0.00000000
Si      -1.37024964       3.18391538       1.68523885       0.00000000
Si      -1.81169235      -2.92244229       1.77538209       0.00000000
