10
Lattice="16.28999089631971 0.0 0.0 0.0 16.28999089631971 0.0 0.0 0.0 34.35334932831803" Properties=species:S:1:pos:R:3:initial_magmoms:R:1 pbc="T T T"
Si      -1.74407256       1.49229432      -0.21117016       0.00000000
Si       1.94722515       0.34111260      -1.19000069       0.00000000
Si       0.83891871      -0.89673192       2.01408475       0.00000000
Si      -1.01045241      -2.52597627      -0.27661332       0.00000000
Si       1.36161594      -1.47818718      -2.51129995       0.00000000
Si       1.19438280      -3.18735027      -0.91294077       0.00000000
Si       1.69323147       1.00800891       3.23482452       0.00000000
Si      -2.89673667       1.10677518      -2.21242564       0.00000000
Si      -2.55230091       2.20278267       1.83776780       0.00000000
Si      -1.02881124      -1.77036462       3.31295783       0.00000000
