10
Lattice="16.28999089631971 0.0 0.0 0.0 16.28999089631971 0.0 0.0 0.0 34.35334932831803" Properties=species:S:1:pos:R:3:initial_magmoms:R:1 pbc="T T T"
Si       1.27946547       1.19444796      -1.59252052       0.00000000
Si       1.71569538      -0.99412983       1.35969258       0.00000000
Si      -1.00258434       1.70574219       1.36702359       0.00000000
Si      -0.06284682      -2.09650671      -1.47396704       0.00000000
Si      -2.14558359      -2.20665969      -0.04618123       0.00000000
Si       1.30660461      -0.78548751      -2.93814196       0.00000000
Si      -2.35207400       0.36222444       2.73096913       0.00000000
Si       0.37028799      -2.36172420       2.72914840       0.00000000
Si      -2.30712827       3.13883865       0.00648935       0.00000000
Si       3.20882049      -2.23713828      -0.01007928       0.00000000
