10
Lattice="16.28999089631971 0.0 0.0 0.0 16.28999089631971 0.0 0.0 0.0 34.35334932831803" Properties=species:S:1:pos:R:3:initial_magmoms:R:1 pbc="T T T"
Si       1.35591444       1.35718506       1.35778254       0.00000000
Si       1.35698958      -1.35718506      -1.35712982       0.00000000
Si      -1.35836120       1.35764118      -1.35678629       0.00000000
Si      -1.35765584      -1.35887922       1.35688935       0.00000000
Si      -2.71298840      -0.00013032      -2.71360693       0.00000000
Si      -0.00128691       2.71401174      -2.71419094       0.00000000
Si       0.00177561      -2.71241532      -2.71618344       0.00000000
Si       2.71480995      -2.71480995       0.00030918       0.00000000
Si       2.71467963       2.71526607       0.00030918       0.00000000
Si       2.71428867      -0.00065160       2.71577120       0.00000000
