10
Lattice="16.28999089631971 0.0 0.0 0.0 16.28999089631971 0.0 0.0 0.0 34.35334932831803" Properties=species:S:1:pos:R:3:initial_magmoms:R:1 pbc="T T T"
Si      -1.39391950       1.31600394       1.35643932       0.00000000
Si       1.30454393      -1.43309646       1.36053424       0.00000000
Si       1.46552171       1.26451125      -1.40140929       0.00000000
Si      -1.72087464      -0.99859329      -1.63185169       0.00000000
Si      -0.24292951       1.64177136      -3.17878387       0.00000000
Si       2.28354034      -0.41818059      -2.85438502       0.00000000
Si      -0.08780636      -0.92825307      -3.57267960       0.00000000
Si      -0.04271075       2.64565890       2.72035737       0.00000000
Si       2.67583613      -0.06159249       2.72221245       0.00000000
Si      -3.49619142       0.88073514      -1.32021682       0.00000000
