10
Lattice="16.28999089631971 0.0 0.0 0.0 16.28999089631971 0.0 0.0 0.0 34.35334932831803" Properties=species:S:1:pos:R:3:initial_magmoms:R:1 pbc="T T T"
Si       1.39637880      -1.28057319      -1.48506177       0.00000000
Si       1.60946829       1.22720782       1.34356024       0.00000000
Si      -1.29544759       1.45239101      -1.48440905       0.00000000
Si      -2.00715443      -0.82510479       1.29333562       0.00000000
Si       3.33840744      -0.60608574       1.40371299       0.00000000
Si       2.71205694      -2.60535744       0.05149570       0.00000000
Si      -2.72579660      -2.66980068      -0.02985308       0.00000000
Si      -2.63342706       2.82695750      -0.03208605       0.00000000
Si       0.04812066      -2.62088181      -2.86847192       0.00000000
Si       2.74250295       2.79242270      -0.02384124       0.00000000
