10
Lattice="16.28999089631971 0.0 0.0 0.0 16.28999089631971 0.0 0.0 0.0 34.35334932831803" Properties=species:S:1:pos:R:3:initial_magmoms:R:1 pbc="T T T"
Si      -0.71864217      -1.84469589      -1.32318870       0.00000000
Si       0.18785954      -0.74227014       2.37151609       0.00000000
Si      -1.67745528       1.83811051      -0.19904342       0.00000000
Si       2.00715443       0.82510479      -1.29333562       0.00000000
Si      -2.02609386      -0.46250568      -2.79409688       0.00000000
Si      -0.63193634       1.31835689       3.21698684       0.00000000
Si       0.71170684       2.27749580      -2.77774467       0.00000000
Si      -3.49201467       0.77485014      -1.40962177       0.00000000
Si      -0.62627263       3.65206229      -1.32542166       0.00000000
Si      -1.96689600      -3.41094681       0.13861584       0.00000000
