10
Lattice="16.28999089631971 0.0 0.0 0.0 16.28999089631971 0.0 0.0 0.0 34.35334932831803" Properties=species:S:1:pos:R:3:initial_magmoms:R:1 pbc="T T T"
Si       1.55694933       1.41328782      -1.07189380       0.00000000
Si       1.06210800       0.96609474       1.87655276       0.00000000
Si       1.28156688      -1.99334214      -0.46256811       0.00000000
Si      -2.08672782       0.73236582      -1.05378958       0.00000000
Si       3.13408197       0.93240702       0.67542158       0.00000000
Si      -3.57204581      -0.27479601       0.51196825       0.00000000
Si       0.27277605      -3.42199143       1.43597080       0.00000000
Si       3.54372660      -1.39181760       0.26799063       0.00000000
Si       1.37381715      -0.48531168       3.60542038       0.00000000
Si       0.98844462       3.69571297      -0.91603257       0.00000000
