10
Lattice="16.28999089631971 0.0 0.0 0.0 16.28999089631971 0.0 0.0 0.0 34.35334932831803" Properties=species:S:1:pos:R:3:initial_magmoms:R:1 pbc="T T T"
Si       0.34976259       2.28599199       0.24164159       0.00000000
Si       1.21399596      -0.86628591       1.83625625       0.00000000
Si       1.62256545      -0.53688582      -1.64404916       0.00000000
Si      -2.32159704      -0.23436423      -0.68366639       0.00000000
Si       0.53449119       2.71604866      -2.08782597       0.00000000
Si       0.31511376      -3.04108236       1.66610402       0.00000000
Si       1.31085630       0.91452060      -3.37291678       0.00000000
Si       3.52957059      -0.60349563       1.11651883       0.00000000
Si      -3.51222893       0.27960156       1.32428800       0.00000000
Si      -2.71164059      -2.54642022      -0.98525461       0.00000000
