10
Lattice="16.28999089631971 0.0 0.0 0.0 16.28999089631971 0.0 0.0 0.0 34.51877397758722" Properties=species:S:1:pos:R:3:initial_magmoms:R:1 pbc="T T T"
Si       0.15260472      -1.87450659      -1.44899539       0.00000000
Si      -0.22465539      -0.65580282       2.29156461       0.00000000
Si       2.23997274       0.93760353      -0.04584096       0.00000000
Si      -2.19539678       1.01235834      -0.52644612       0.00000000
Si      -2.43067651      -1.49825646       2.50057590       0.00000000
Si      -1.63309368      -3.36715929      -0.84867905       0.00000000
Si      -0.25956486       1.34408790       3.63631324       0.00000000
Si       2.83151151       1.63624905       2.11496646       0.00000000
Si       1.52961471      -2.15888112       2.89995834       0.00000000
Si      -2.68404270       2.77319887       0.97377516       0.00000000
