10
Lattice="16.28999089631971 0.0 0.0 0.0 16.28999089631971 0.0 0.0 0.0 34.51877397758722" Properties=species:S:1:pos:R:3:initial_magmoms:R:1 pbc="T T T"
Si       0.02552643       0.09962964      -2.33119218       0.00000000
Si      -1.24072622      -1.92718845       0.55316366       0.00000000
Si       2.18416320      -0.43173387       0.91136518       0.00000000
Si      -1.36494236       2.04880537       0.66748991       0.00000000
Si       1.37678193      -1.38849444       2.93009325       0.00000000
Si       2.74089024       1.80093022       1.39107285       0.00000000
Si       1.65415176       1.76213395      -2.63219606       0.00000000
Si      -0.94655000      -1.94531922       2.86060692       0.00000000
Si      -2.12192563       0.87201999      -2.76423045       0.00000000
Si      -2.31779659       2.75779016      -1.37736889       0.00000000
