10
Lattice="16.28999089631971 0.0 0.0 0.0 16.28999089631971 0.0 0.0 0.0 34.51877397758722" Properties=species:S:1:pos:R:3:initial_magmoms:R:1 pbc="T T T"
Si       1.52761104      -1.10632558      -1.46539181       0.00000000
Si       1.59961284       1.43905860       1.14267561       0.00000000
Si      -1.32853095       1.59964542      -1.51278611       0.00000000
Si      -0.15170877      -1.89622768       2.16384507       0.00000000
Si       3.34477683      -1.82222384       0.02067676       0.00000000
Si      -2.44264382      -0.01040931      -2.93036940       0.00000000
Si      -3.01611698       2.03859576       1.45731441       0.00000000
Si       1.06044642       1.46999331       3.50779977       0.00000000
Si       0.47959389      -2.64847837      -2.91701063       0.00000000
Si       0.22571424       2.62653444      -3.00123648       0.00000000
