10
Lattice="16.28999089631971 0.0 0.0 0.0 16.28999089631971 0.0 0.0 0.0 34.51877397758722" Properties=species:S:1:pos:R:3:initial_magmoms:R:1 pbc="T T T"
Si       1.71031968      -1.32629922       0.87898655       0.00000000
Si       0.80738127       0.95676057      -2.01872807       0.00000000
Si      -0.89072091       1.56545271       1.55921389       0.00000000
Si      -2.32333193      -0.55682478      -0.06948633       0.00000000
Si      -0.62807724      -0.49418973       3.32647255       0.00000000
Si      -1.37678193       1.38849444      -2.93009325       0.00000000
Si      -2.61750815      -0.53869401      -2.37692959       0.00000000
Si      -3.17962229       1.45762920       0.99113811       0.00000000
Si       1.36410831       3.18942466      -1.53902040       0.00000000
Si       1.87607043      -3.34127448      -0.33752476       0.00000000
