10
Lattice="16.28999089631971 0.0 0.0 0.0 16.28999089631971 0.0 0.0 0.0 34.51877397758722" Properties=species:S:1:pos:R:3:initial_magmoms:R:1 pbc="T T T"
Si       2.28890138       0.10782351       0.56807578       0.00000000
Si      -1.14625955       1.32257437      -1.59915214       0.00000000
Si       0.85629037      -2.01445398      -1.06062444       0.00000000
Si      -0.64196561       0.78403770       2.28127801       0.00000000
Si      -1.67086271       2.61344447       1.07332736       0.00000000
Si       3.17962229      -1.45762920      -0.99113811       0.00000000
Si      -2.76353075      -0.29813958      -2.38517958       0.00000000
Si      -3.11941838      -1.96138116      -0.31484591       0.00000000
Si      -0.09719754      -3.75124491       0.16986698       0.00000000
Si       0.43789801       1.97967061      -3.25374145       0.00000000
