10
Lattice="16.28999089631971 0.0 0.0 0.0 16.28999089631971 0.0 0.0 0.0 34.51877397758722" Properties=species:S:1:pos:R:3:initial_magmoms:R:1 pbc="T T T"
Si       1.35560493       1.16260753       1.53380603       0.00000000
Si       1.74560382      -0.43451524      -1.54350784       0.00000000
Si      -1.61086923       1.10346994      -1.44806338       0.00000000
Si      -1.31973435      -1.50923170       1.43145090       0.00000000
Si      -2.56430664      -1.11024073      -1.70691981       0.00000000
Si       2.97911520       2.11093476       0.12188586       0.00000000
Si      -0.13219335       2.40558828       2.87831993       0.00000000
Si      -3.02270724       2.41653516       0.02985876       0.00000000
Si       2.58478317      -0.33927102       2.88499586       0.00000000
Si      -2.30166297      -3.16988317       0.06033885       0.00000000
