10
Lattice="16.28999089631971 0.0 0.0 0.0 16.28999089631971 0.0 0.0 0.0 34.51877397758722" Properties=species:S:1:pos:R:3:initial_magmoms:R:1 pbc="T T T"
Si      -1.35537687       1.35593073      -1.36183543       0.00000000
Si       1.37600001       1.32960609       1.37029254       0.00000000
Si       1.35943308      -1.36094805      -1.36159380       0.00000000
Si      -1.35317772      -1.36847403       1.37622977       0.00000000
Si       0.05499504       2.72878677       2.69218972       0.00000000
Si      -2.71397916       2.71147050      -0.00220920       0.00000000
Si      -2.70989037      -2.71740006       0.00086297       0.00000000
Si       2.71357191      -2.71448415      -0.00055230       0.00000000
Si       2.71769328       2.71244790      -0.00272698       0.00000000
Si       0.00211770       2.71197549      -2.71887275       0.00000000
