10
Lattice="16.28999089631971 0.0 0.0 0.0 16.28999089631971 0.0 0.0 0.0 34.51877397758722" Properties=species:S:1:pos:R:3:initial_magmoms:R:1 pbc="T T T"
Si       0.27702579      -0.65672062       2.22949982       0.00000000
Si       0.48864592      -1.76084053      -1.50022127       0.00000000
Si       1.64474070       1.62971839      -0.54156535       0.00000000
Si      -2.24898374       0.77082651      -0.15202077       0.00000000
Si       0.09919600      -0.86899561      -3.64742829       0.00000000
Si       0.44294758       3.70338652      -0.74909233       0.00000000
Si       0.08115483       1.22904955       3.61636138       0.00000000
Si      -1.03350539      -2.59378081       2.64721174       0.00000000
Si      -3.32679530       0.33458520       1.94910366       0.00000000
Si       2.42447784      -1.42911097       2.66253808       0.00000000
