10
Lattice="16.28999089631971 0.0 0.0 0.0 16.28999089631971 0.0 0.0 0.0 34.51877397758722" Properties=species:S:1:pos:R:3:initial_magmoms:R:1 pbc="T T T"
Si       0.97169850       1.68347376       1.28472045       0.00000000
Si       1.32100497      -1.39918068      -1.32189719       0.00000000
Si      -1.40750487       1.34180730      -1.32710953       0.00000000
Si      -1.68852366      -1.20744738       1.18226867       0.00000000
Si      -1.02710079       1.46748465       2.87203264       0.00000000
Si       2.47088349       0.58127607       2.76533505       0.00000000
Si       2.66269824      -0.01633887      -2.69491671       0.00000000
Si       0.46310841      -0.22496490       3.76707043       0.00000000
Si      -0.05655888       2.70089829      -2.69332884       0.00000000
Si      -0.05499504      -2.72878677      -2.69218972       0.00000000
