10
Lattice="16.28999089631971 0.0 0.0 0.0 16.28999089631971 0.0 0.0 0.0 34.51877397758722" Properties=species:S:1:pos:R:3:initial_magmoms:R:1 pbc="T T T"
Si       1.77714126      -1.27042452      -0.72392813       0.00000000
Si      -1.00923066      -1.31155677       1.68503489       0.00000000
Si       0.65163258       2.11862853       0.87084012       0.00000000
Si      -0.99455337      -0.32392665      -2.21068708       0.00000000
Si      -1.66371399       0.70271802       2.65587595       0.00000000
Si       1.85248251      -0.66847644      -2.93402839       0.00000000
Si       0.51388434       1.60236585       3.15515578       0.00000000
Si       1.25196795      -3.37558122       0.28239825       0.00000000
Si       0.83724084      -2.56906332       2.43264292       0.00000000
Si      -2.93502306       2.10810519       1.06386921       0.00000000
