10
Lattice="16.28999089631971 0.0 0.0 0.0 16.28999089631971 0.0 0.0 0.0 34.51877397758722" Properties=species:S:1:pos:R:3:initial_magmoms:R:1 pbc="T T T"
Si       1.70256564       1.00069470      -1.49359854       0.00000000
Si      -1.37784078       1.29112911       1.60834449       0.00000000
Si      -1.97166015      -0.78200145      -1.33961020       0.00000000
Si       1.31971806      -1.43896086       1.59276616       0.00000000
Si       2.58476688       2.54301561       0.12262456       0.00000000
Si      -2.58949098       2.80368819       0.16754042       0.00000000
Si      -1.23302268       0.31092723      -3.65105764       0.00000000
Si      -2.83537224      -2.68587891       0.14676701       0.00000000
Si      -3.57141960       1.14303672      -1.20357164       0.00000000
Si      -0.04077387       2.63166579       2.99644872       0.00000000
