10
Lattice="16.28999089631971 0.0 0.0 0.0 16.28999089631971 0.0 0.0 0.0 34.51877397758722" Properties=species:S:1:pos:R:3:initial_magmoms:R:1 pbc="T T T"
Si       1.35817875       1.35821133       1.35517330       0.00000000
Si      -1.35676152      -1.35707103       1.35776221       0.00000000
Si      -1.35715248       1.35729909      -1.35731347       0.00000000
Si       1.35770634      -1.35790182      -1.35772770       0.00000000
Si       2.71107954       0.00130320       2.71517924       0.00000000
Si      -0.00021177       2.71440270       2.71203803       0.00000000
Si       0.00122175       2.71342220      -2.71383301       0.00000000
Si      -2.71396287       2.71387546       0.00003452       0.00000000
Si      -2.71497285       0.00045612      -2.71486857       0.00000000
Si       2.71507059       2.71487811      -0.00044874       0.00000000
