10
Lattice="16.28999089631971 0.0 0.0 0.0 16.28999089631971 0.0 0.0 0.0 34.51877397758722" Properties=species:S:1:pos:R:3:initial_magmoms:R:1 pbc="T T T"
Si       1.45507167       1.04650904      -1.46380395       0.00000000
Si       1.77730416      -1.06686468       1.17985235       0.00000000
Si      -1.19203704      -1.68590097      -1.40746928       0.00000000
Si      -1.09964016       1.73938008       1.60239690       0.00000000
Si       3.33216837       0.72340632       0.94488293       0.00000000
Si       2.37412089       2.69632799      -0.02557843       0.00000000
Si       0.04149063       2.25139596      -2.81894273       0.00000000
Si       0.68463612      -0.98805366       3.40790238       0.00000000
Si      -1.26069939       0.40119012       3.56216687       0.00000000
Si      -2.91680595       2.45527834       0.11632833       0.00000000
