10
Lattice="16.28999089631971 0.0 0.0 0.0 16.28999089631971 0.0 0.0 0.0 34.51877397758722" Properties=species:S:1:pos:R:3:initial_magmoms:R:1 pbc="T T T"
Si       0.19587096      -1.88577017      -1.38686156       0.00000000
Si       0.95285423      -0.70898478       2.04485879       0.00000000
Si      -2.31220327       0.55104183      -0.09175095       0.00000000
Si       1.39890538       1.81340280      -0.77625862       0.00000000
Si      -2.20485217       2.51353071      -1.44726945       0.00000000
Si       2.34332302      -2.65816052      -0.95382330       0.00000000
Si       1.80427063       1.36801791       2.89043115       0.00000000
Si      -0.00922177       3.15144711      -2.11586395       0.00000000
Si      -0.08115483      -1.22904955      -3.61636138       0.00000000
Si       2.96304349       0.88865208      -2.29739829       0.00000000
