10
Lattice="16.28999089631971 0.0 0.0 0.0 16.28999089631971 0.0 0.0 0.0 34.51877397758722" Properties=species:S:1:pos:R:3:initial_magmoms:R:1 pbc="T T T"
Si       0.59153877       0.69864552       2.16080742       0.00000000
Si       0.20447208       1.87121994      -1.42717951       0.00000000
Si      -2.23997274      -0.93760353       0.04584096       0.00000000
Si       1.93971546      -1.51008300      -0.29244322       0.00000000
Si       0.44211060       0.77906925      -3.53800372       0.00000000
Si       1.00460430      -1.41045336       3.21784191       0.00000000
Si      -2.46462813      -1.59340635       2.33740557       0.00000000
Si      -2.08736802      -2.81211012      -1.40315443       0.00000000
Si      -1.86989652       3.09816971      -1.43473912       0.00000000
Si       3.54131568      -0.34127550      -1.65365731       0.00000000
