10
Lattice="16.28999089631971 0.0 0.0 0.0 16.28999089631971 0.0 0.0 0.0 34.51877397758722" Properties=species:S:1:pos:R:3:initial_magmoms:R:1 pbc="T T T"
Si      -1.74560382       0.43451524       1.54350784       0.00000000
Si      -0.06519258       1.29407501      -2.00958059       0.00000000
Si       0.43932501      -2.27488221      -0.91823442       0.00000000
Si       1.15665516      -0.49899528      -2.77672625       0.00000000
Si       1.23351138       2.54545001       1.66539370       0.00000000
Si       1.22671845      -2.87770995       1.31381979       0.00000000
Si      -0.38999889       1.59712277       3.07731387       0.00000000
Si       3.10032909       0.52165697       1.69224932       0.00000000
Si      -3.35647305       1.53798518       0.09544446       0.00000000
Si       2.10891969      -1.33538904       2.93004289       0.00000000
