10
Lattice="16.28999089631971 0.0 0.0 0.0 16.28999089631971 0.0 0.0 0.0 34.51877397758722" Properties=species:S:1:pos:R:3:initial_magmoms:R:1 pbc="T T T"
Si       0.78739344      -0.60282774       2.23205421       0.00000000
Si      -0.43932501       2.27488221       0.91823442       0.00000000
Si      -2.14819488      -1.29259521       0.07459511       0.00000000
Si       0.71733015       1.77588693      -1.85849183       0.00000000
Si       1.19951415      -1.67213592      -1.81285798       0.00000000
Si       2.63819808      -2.13734574       1.04264015       0.00000000
Si      -0.50451759       3.56895722      -1.09134617       0.00000000
Si       3.80956311      -0.32817834      -0.04228552       0.00000000
Si      -3.85851456       0.03370401      -0.80439144       0.00000000
Si       2.87774253       2.45037668      -1.21923830       0.00000000
