10
Lattice="16.28999089631971 0.0 0.0 0.0 16.28999089631971 0.0 0.0 0.0 34.51877397758722" Properties=species:S:1:pos:R:3:initial_magmoms:R:1 pbc="T T T"
Si      -1.26658008       1.30851054      -1.43644780       0.00000000
Si      -1.37274201      -1.32716259       1.34859402       0.00000000
Si       1.34192133       1.38981393       1.34780009       0.00000000
Si       1.37246508      -1.23799113      -1.49887849       0.00000000
Si       0.49063851       2.33663760      -2.58086972       0.00000000
Si       2.68657938      -2.66610285      -0.01640333       0.00000000
Si       2.28327156       0.67934187      -2.95843460       0.00000000
Si      -0.01695789      -2.68609068       2.70663239       0.00000000
Si       2.69834076       0.03025053       2.70538971       0.00000000
Si      -2.74470210      -2.67165774      -0.02268230       0.00000000
