10
Lattice="16.28999089631971 0.0 0.0 0.0 16.28999089631971 0.0 0.0 0.0 34.51877397758722" Properties=species:S:1:pos:R:3:initial_magmoms:R:1 pbc="T T T"
Si       1.36327752      -1.40734197      -1.29024345       0.00000000
Si      -1.34762283      -1.36710567       1.36896356       0.00000000
Si       1.37196009       1.34449515       1.37127632       0.00000000
Si      -1.32880788       1.32572907      -1.55922425       0.00000000
Si      -2.69917155       2.70772380      -0.02765646       0.00000000
Si       2.74470210       2.67165774       0.02268230       0.00000000
Si      -2.70692559      -2.71518462      -0.00896798       0.00000000
Si      -2.70145215      -0.01283652       2.72876239       0.00000000
Si       0.01396053       2.70226665       2.72796845       0.00000000
Si       0.01241298      -2.72883564       2.72696741       0.00000000
