10
Lattice="16.28999089631971 0.0 0.0 0.0 16.28999089631971 0.0 0.0 0.0 34.51877397758722" Properties=species:S:1:pos:R:3:initial_magmoms:R:1 pbc="T T T"
Si       1.37274201       1.32716259      -1.34859402       0.00000000
Si      -1.35799956       1.35777150       1.35669213       0.00000000
Si       1.35578412      -1.35892809       1.35803836       0.00000000
Si      -1.37196009      -1.34449515      -1.37127632       0.00000000
Si      -0.00868257      -2.75183712      -2.66151978       0.00000000
Si       0.10616193       2.63567313      -2.78504183       0.00000000
Si       2.71186146      -2.71327869       0.00072489       0.00000000
Si       2.71368594       0.00029322       2.71407464       0.00000000
Si      -0.00053757       2.71502172       2.71428175       0.00000000
Si      -0.00153126      -2.71513575       2.71448887       0.00000000
