10
Lattice="16.28999089631971 0.0 0.0 0.0 16.28999089631971 0.0 0.0 0.0 34.51877397758722" Properties=species:S:1:pos:R:3:initial_magmoms:R:1 pbc="T T T"
Si       1.35690813       1.35698958      -1.35662309       0.00000000
Si      -1.35853713      -1.35798327      -1.35655406       0.00000000
Si      -1.35764118       1.35721764       1.35931556       0.00000000
Si       1.35527913      -1.35909099       1.36197351       0.00000000
Si       2.71401174      -0.00043983      -2.71452338       0.00000000
Si      -0.00021177       2.71428867      -2.71431627       0.00000000
Si       0.00526167       2.69925300       2.72929743       0.00000000
Si       2.71466334       2.71472850       0.00041423       0.00000000
Si      -0.00120546      -2.71586880      -2.71410916       0.00000000
Si      -2.71591767      -0.00068418      -2.71455790       0.00000000
