10
Lattice="16.28999089631971 0.0 0.0 0.0 16.28999089631971 0.0 0.0 0.0 34.51877397758722" Properties=species:S:1:pos:R:3:initial_magmoms:R:1 pbc="T T T"
Si      -1.35527913       1.35909099      -1.36197351       0.00000000
Si       1.35902583      -1.35764118      -1.36200803       0.00000000
Si      -1.35376416      -1.34425080       1.38251219       0.00000000
Si       1.34412048       1.37819916       1.38620570       0.00000000
Si      -2.71704168      -2.71062342      -0.00048326       0.00000000
Si       2.71665072      -2.71116099      -0.00107008       0.00000000
Si      -2.71292031       2.71630863      -0.00265795       0.00000000
Si      -2.71381626       0.00110772      -2.71852756       0.00000000
Si       0.00118917      -2.71409319      -2.71918342       0.00000000
Si       0.00162900       2.71608057      -2.71859660       0.00000000
