10
Lattice="16.28999089631971 0.0 0.0 0.0 16.28999089631971 0.0 0.0 0.0 34.51877397758722" Properties=species:S:1:pos:R:3:initial_magmoms:R:1 pbc="T T T"
Si       0.15874931       0.85346568      -2.18245070       0.00000000
Si      -0.79187223       1.91919006       1.11909928       0.00000000
Si       1.97148911      -0.89994105       1.11019343       0.00000000
Si      -1.52987439      -1.92109599      -0.12133356       0.00000000
Si       1.81319918       2.36666007      -1.30525913       0.00000000
Si      -2.01748296       0.38608929       2.65479348       0.00000000
Si       0.75508548      -2.30226733       2.56917307       0.00000000
Si      -3.28069101      -1.04544333       1.24043284       0.00000000
Si       1.43030272      -0.47786715      -3.60283001       0.00000000
Si      -0.50097728      -3.75050276       1.08661709       0.00000000
