10
Lattice="16.28999089631971 0.0 0.0 0.0 16.28999089631971 0.0 0.0 0.0 34.51877397758722" Properties=species:S:1:pos:R:3:initial_magmoms:R:1 pbc="T T T"
Si       1.70785989      -1.63528794      -0.15022579       0.00000000
Si      -0.90536562       0.96793551      -1.98110258       0.00000000
Si      -1.30590414      -0.29074392       2.28310751       0.00000000
Si       0.84939318      -0.38564946       3.15605327       0.00000000
Si       1.76295267      -2.33769645       2.13654071       0.00000000
Si      -2.16754740       2.75985180      -0.96587035       0.00000000
Si       2.19919887       1.50630372       2.58600992       0.00000000
Si       3.72933486      -0.30123468      -0.43714600       0.00000000
Si      -2.01284127      -0.63267102      -3.44255925       0.00000000
Si       0.62001369       2.21899122      -3.40258649       0.00000000
