10
Lattice="16.28999089631971 0.0 0.0 0.0 16.28999089631971 0.0 0.0 0.0 34.51877397758722" Properties=species:S:1:pos:R:3:initial_magmoms:R:1 pbc="T T T"
Si       2.15529732      -0.09490554       0.87294576       0.00000000
Si      -0.96967854       1.91034459       1.11433568       0.00000000
Si      -1.66276917      -1.78158843       0.26807295       0.00000000
Si       1.30590414       0.29074392      -2.28310751       0.00000000
Si      -2.94475959       1.64240667      -0.03714222       0.00000000
Si       1.54421055      -0.39319173       3.11663281       0.00000000
Si      -3.46993290      -0.46275003       0.96918416       0.00000000
Si       3.06885681      -2.04695253      -0.14656680       0.00000000
Si      -0.64868409      -0.74595168       3.80766453       0.00000000
Si       3.50510301       1.79704764       0.30290241       0.00000000
