10
Lattice="16.28999089631971 0.0 0.0 0.0 16.28999089631971 0.0 0.0 0.0 34.51877397758722" Properties=species:S:1:pos:R:3:initial_magmoms:R:1 pbc="T T T"
Si      -1.63577664       0.95500125       1.44254037       0.00000000
Si      -1.25037153       0.27093528      -2.02628768       0.00000000
Si       2.01184758       1.16900298      -0.64670959       0.00000000
Si       0.65309868      -2.19400236       0.85665289       0.00000000
Si       2.21745996       0.31716630      -2.87893640       0.00000000
Si      -2.06555571      -1.95056460      -2.34244531       0.00000000
Si       2.84648202      -1.83484044       1.52666267       0.00000000
Si      -3.43997559      -0.68040072       1.23867238       0.00000000
Si       0.21367593       1.39667202      -3.54262923       0.00000000
Si      -2.85671214      -2.52649755      -0.15982201       0.00000000
