10
Lattice="16.28999089631971 0.0 0.0 0.0 16.28999089631971 0.0 0.0 0.0 34.51877397758722" Properties=species:S:1:pos:R:3:initial_magmoms:R:1 pbc="T T T"
Si      -2.25404730      -0.27466569       0.56393353       0.00000000
Si       0.52261578      -1.80152739      -1.43287511       0.00000000
Si       0.03109761       2.20749048      -0.84798868       0.00000000
Si       1.57809375      -0.93359619       1.57888960       0.00000000
Si      -1.73152926      -1.22341158       2.68853073       0.00000000
Si       2.21286618      -2.67053373       0.10331475       0.00000000
Si      -0.94038912       1.96654509      -2.97438086       0.00000000
Si      -1.48447512       3.38963949       0.62834559       0.00000000
Si       2.61373050       0.93895560       2.54434573       0.00000000
Si       2.29296411       2.86264170      -1.08558153       0.00000000
