10
Lattice="16.28999089631971 0.0 0.0 0.0 16.28999089631971 0.0 0.0 0.0 34.51877397758722" Properties=species:S:1:pos:R:3:initial_magmoms:R:1 pbc="T T T"
Si       1.35596331       1.35720135       1.35662309       0.00000000
Si      -1.35782037       1.35786924      -1.35689924       0.00000000
Si       1.35772263      -1.35808101      -1.35703732       0.00000000
Si      -1.35814617      -1.35687555       1.35869422       0.00000000
Si       0.00001629      -2.71443528      -2.71410916       0.00000000
Si      -2.71453302       0.00306252      -2.71462694       0.00000000
Si      -0.00039096       2.71555929      -2.71400560       0.00000000
Si       2.71492398       0.00003258      -2.71476502       0.00000000
Si       2.71464705       2.71505035       0.00017259       0.00000000
Si      -2.71502172      -2.71472850       0.00003452       0.00000000
