10
Lattice="16.28999089631971 0.0 0.0 0.0 16.28999089631971 0.0 0.0 0.0 34.51877397758722" Properties=species:S:1:pos:R:3:initial_magmoms:R:1 pbc="T T T"
Si       1.29218796       1.40437719       1.38624022       0.00000000
Si      -1.28205558       1.37606517      -1.44965124       0.00000000
Si       1.42806285      -1.32577794      -1.45334475       0.00000000
Si      -1.31478219      -1.43053893       1.50142943       0.00000000
Si      -2.26597158       0.76476663       2.52270245       0.00000000
Si      -0.71110737       2.55503763       2.28773302       0.00000000
Si      -2.58911631      -2.63350656      -0.13255217       0.00000000
Si       0.82673379      -3.41493786       1.38340968       0.00000000
Si       2.68872966       2.71472850      -0.02537131       0.00000000
Si       2.60872947      -2.79886635      -0.06196123       0.00000000
