10
Lattice="16.28999089631971 0.0 0.0 0.0 16.28999089631971 0.0 0.0 0.0 34.51877397758722" Properties=species:S:1:pos:R:3:initial_magmoms:R:1 pbc="T T T"
Si       1.94092092      -0.14597469       1.29328111       0.00000000
Si      -1.55486421      -1.79027100       0.23496943       0.00000000
Si      -0.95804748       1.97292167      -0.97046135       0.00000000
Si       2.00329533      -1.15066044      -0.90149280       0.00000000
Si      -1.87709670       0.32310272      -2.40868688       0.00000000
Si       0.71110737      -2.55503763      -2.28773302       0.00000000
Si      -3.33216837      -0.72340632      -0.94488293       0.00000000
Si       0.74573991       2.85320069      -2.32024973       0.00000000
Si      -0.57094821      -1.17897246      -3.73738427       0.00000000
Si      -2.64753225      -1.71145998       2.46301946       0.00000000
