10
Lattice="16.28999089631971 0.0 0.0 0.0 16.28999089631971 0.0 0.0 0.0 34.51877397758722" Properties=species:S:1:pos:R:3:initial_magmoms:R:1 pbc="T T T"
Si      -1.77290586       1.63771026      -0.14432307       0.00000000
Si       1.59348780       0.75858946      -1.71710285       0.00000000
Si       0.20689929      -1.94466340       1.52062188       0.00000000
Si       1.22510574       1.09740191       1.92811624       0.00000000
Si      -0.84937689      -1.71073900      -1.72193548       0.00000000
Si       2.06610957      -2.90546389       0.45661460       0.00000000
Si       1.32255252       3.11827578      -1.59690841       0.00000000
Si      -3.77548443       0.35695462       0.19503118       0.00000000
Si       1.02273507      -3.23805682      -1.71378905       0.00000000
Si      -1.64946024       2.92587459       1.89625539       0.00000000
