10
Lattice="16.28999089631971 0.0 0.0 0.0 16.28999089631971 0.0 0.0 0.0 34.51877397758722" Properties=species:S:1:pos:R:3:initial_magmoms:R:1 pbc="T T T"
Si       1.97979768      -1.30100967       0.14981156       0.00000000
Si      -0.27093528       2.35968632       0.12019444       0.00000000
Si      -0.29980116      -0.50306941      -2.32715349       0.00000000
Si      -1.59348780      -0.75858946       1.71710285       0.00000000
Si       0.74634264      -2.64719898      -1.53570659       0.00000000
Si      -2.44286469      -2.46932847      -0.00483263       0.00000000
Si      -2.50947450      -1.31229864      -2.08438281       0.00000000
Si      -0.36838206       0.33881245       3.64521909       0.00000000
Si      -2.63265948       2.64972977       0.07756373       0.00000000
Si      -3.36639366       0.87912080       1.57277978       0.00000000
