10
Lattice="16.28999089631971 0.0 0.0 0.0 16.28999089631971 0.0 0.0 0.0 34.51877397758722" Properties=species:S:1:pos:R:3:initial_magmoms:R:1 pbc="T T T"
Si      -1.44625878       1.13971356      -1.44706233       0.00000000
Si       1.26320805       1.43153262       1.41436065       0.00000000
Si       1.75081662      -0.87565266      -1.36176639       0.00000000
Si      -1.44668232      -1.30824338       1.37744970       0.00000000
Si      -0.45025560       0.35956917      -3.60517729       0.00000000
Si       3.28069101       1.04544333      -1.24043284       0.00000000
Si      -0.00140094      -2.61025163       2.71827700       0.00000000
Si      -2.72236851       2.67372657      -0.06983152       0.00000000
Si      -3.16917063      -2.18389116      -0.01135668       0.00000000
Si       2.71634121       0.12085551       2.73498064       0.00000000
