10
Lattice="16.28999089631971 0.0 0.0 0.0 16.28999089631971 0.0 0.0 0.0 34.51877397758722" Properties=species:S:1:pos:R:3:initial_magmoms:R:1 pbc="T T T"
Si      -1.75081662       0.87565266       1.36176639       0.00000000
Si       1.02889711      -1.82940677       1.20795065       0.00000000
Si       1.52987439       1.92109599       0.12133356       0.00000000
Si       0.52460316      -1.29087010      -2.67247949       0.00000000
Si       1.67086271      -2.61344447      -1.07332736       0.00000000
Si      -2.20107222       1.23522183      -2.24341089       0.00000000
Si       2.28495987      -0.38117134       2.69050663       0.00000000
Si      -0.48760857       2.30718528       2.77612704       0.00000000
Si      -3.19707540       2.01536622      -0.08529594       0.00000000
Si       1.68862370       2.77456167      -2.06111715       0.00000000
