10
Lattice="16.28999089631971 0.0 0.0 0.0 16.28999089631971 0.0 0.0 0.0 34.51877397758722" Properties=species:S:1:pos:R:3:initial_magmoms:R:1 pbc="T T T"
Si      -1.36780614      -1.33819092      -1.36120029       0.00000000
Si      -1.35604476       1.35816246       1.36059276       0.00000000
Si       1.36013232      -1.35654975       1.36017853       0.00000000
Si       1.35419756       1.36459701      -1.38851501       0.00000000
Si      -2.71526607      -2.71252935       0.00452196       0.00000000
Si      -2.71246419       2.71772586       0.00300314       0.00000000
Si      -2.71344159       0.00104256       2.71787171       0.00000000
Si       0.00213399      -2.71423980       2.71814786       0.00000000
Si       2.71465912       2.71943631      -0.00017259       0.00000000
Si       0.00179190       2.71614573       2.71797526       0.00000000
