10
Lattice="16.28999089631971 0.0 0.0 0.0 16.28999089631971 0.0 0.0 0.0 34.51877397758722" Properties=species:S:1:pos:R:3:initial_magmoms:R:1 pbc="T T T"
Si      -2.19338334      -0.35916192      -0.67000978       0.00000000
Si       0.59170167      -1.48160808       1.72901184       0.00000000
Si       1.83343950       0.20357613      -1.53249635       0.00000000
Si       0.33415677       2.26167102       0.77529210       0.00000000
Si       1.31092146       2.52040509      -1.34367855       0.00000000
Si       2.39085072      -0.10961541       2.28880311       0.00000000
Si       3.43782531      -0.42349113       0.18622889       0.00000000
Si      -3.01925376      -0.97823079       1.45738345       0.00000000
Si      -2.84648202       1.83484044      -1.52666267       0.00000000
Si      -1.32900336      -1.84723713       2.99357331       0.00000000
