10
Lattice="16.28999089631971 0.0 0.0 0.0 16.28999089631971 0.0 0.0 0.0 34.51877397758722" Properties=species:S:1:pos:R:3:initial_magmoms:R:1 pbc="T T T"
Si       1.55424519       1.02688902      -1.48845037       0.00000000
Si      -1.11411287      -1.61005473      -1.41758328       0.00000000
Si       1.32853095      -1.59964542       1.51278611       0.00000000
Si      -1.80559079       1.92295305      -0.09074991       0.00000000
Si       0.53879338       2.90866095       0.68761436       0.00000000
Si      -1.68758603       0.43895034       2.97010053       0.00000000
Si      -2.32289603      -0.19683207      -2.87313724       0.00000000
Si       0.38792354       2.53259001      -2.86243641       0.00000000
Si      -2.99099780      -2.46008322      -0.12682205       0.00000000
Si       2.83294503       2.68703550      -0.35430089       0.00000000
