10
Lattice="16.28999089631971 0.0 0.0 0.0 16.28999089631971 0.0 0.0 0.0 34.51877397758722" Properties=species:S:1:pos:R:3:initial_magmoms:R:1 pbc="T T T"
Si      -1.35488817       1.35659862       1.35955719       0.00000000
Si       1.35736425       1.35692442      -1.35738251       0.00000000
Si      -1.35775521      -1.35773892      -1.35703732       0.00000000
Si       1.36032903      -1.35850455       1.35924652       0.00000000
Si       0.00003258       2.71383255      -2.71473050       0.00000000
Si       2.71402803       2.71459818       0.00010356       0.00000000
Si      -2.71466334      -2.71472850      -0.00041423       0.00000000
Si       2.71458189      -0.00006516      -2.71483405       0.00000000
Si      -2.71487511      -0.00043983      -2.71473050       0.00000000
Si      -0.00065160      -2.71516833      -2.71493761       0.00000000
