10
Lattice="16.28999089631971 0.0 0.0 0.0 16.28999089631971 0.0 0.0 0.0 34.51877397758722" Properties=species:S:1:pos:R:3:initial_magmoms:R:1 pbc="T T T"
Si       0.92960514       1.87079247      -1.13653127       0.00000000
Si      -1.92002085      -0.71676000      -1.22451967       0.00000000
Si       2.01538807      -1.37412666       0.25864932       0.00000000
Si      -0.78112179       0.34656975       2.49950582       0.00000000
Si       1.38677977       2.05324047       1.35855615       0.00000000
Si      -0.38604042      -1.99260909      -2.59954128       0.00000000
Si       2.17262403       0.09568746       2.48904663       0.00000000
Si       2.36392076       0.72705528      -2.60927558       0.00000000
Si       1.08442662      -3.29685165      -1.02593305       0.00000000
Si      -3.70201653      -1.33283151       0.22085124       0.00000000
