10
Lattice="16.28999089631971 0.0 0.0 0.0 16.28999089631971 0.0 0.0 0.0 34.51877397758722" Properties=species:S:1:pos:R:3:initial_magmoms:R:1 pbc="T T T"
Si       1.35640314       1.35777080       1.35714088       0.00000000
Si      -1.35806702      -1.35762626       1.35700280       0.00000000
Si       1.35571570      -1.35894575      -1.35862518       0.00000000
Si      -1.35640544       1.35802167      -1.36086891       0.00000000
Si       2.71364196      -2.71398053      -0.00017259       0.00000000
Si       2.71465194      -0.00056119       2.71473050       0.00000000
Si       2.71444017       2.71525560      -0.00006904       0.00000000
Si      -0.00070717      -2.71531631       2.71490309       0.00000000
Si      -2.71611545      -0.00016822       2.71448887       0.00000000
Si      -0.00136010       2.71571172       2.71490309       0.00000000
