10
Lattice="16.28999089631971 0.0 0.0 0.0 16.28999089631971 0.0 0.0 0.0 34.51877397758722" Properties=species:S:1:pos:R:3:initial_magmoms:R:1 pbc="T T T"
Si       1.75231530      -0.05152527       1.53888232       0.00000000
Si       0.97676469       0.25873407      -2.11897064       0.00000000
Si      -1.58306220       1.42426728       1.02938493       0.00000000
Si      -0.33415677      -2.26167102      -0.77529210       0.00000000
Si      -1.16879121       0.74217240      -2.94866436       0.00000000
Si       1.49928273      -2.05809489      -2.30778844       0.00000000
Si       2.05669395      -2.37128643       1.51351101       0.00000000
Si      -0.80200557       1.38028428       3.26858453       0.00000000
Si       0.25754490      -3.74327910       0.95371974       0.00000000
Si      -2.52754011      -2.62083294      -1.44530187       0.00000000
