10
Lattice="16.28999089631971 0.0 0.0 0.0 16.28999089631971 0.0 0.0 0.0 34.51877397758722" Properties=species:S:1:pos:R:3:initial_magmoms:R:1 pbc="T T T"
Si       1.15639452       2.09807055      -0.58847639       0.00000000
Si      -1.79838342       0.29465352      -1.79197411       0.00000000
Si       1.37875302      -2.07508536       0.63521483       0.00000000
Si      -0.46845153      -0.39213288       2.50458008       0.00000000
Si      -2.26108458       1.26516285       2.88214496       0.00000000
Si       1.66874760      -3.20280948      -1.53463651       0.00000000
Si       1.04415642       2.24736840      -3.04693936       0.00000000
Si       3.68475306      -1.36339155       0.95427204       0.00000000
Si      -3.83176638       1.08595656      -0.78412891       0.00000000
Si      -1.33809318       2.17435662      -3.18270178       0.00000000
