10
Lattice="16.28999089631971 0.0 0.0 0.0 16.28999089631971 0.0 0.0 0.0 34.51877397758722" Properties=species:S:1:pos:R:3:initial_magmoms:R:1 pbc="T T T"
Si      -1.35596331      -1.35720135      -1.35662309       0.00000000
Si      -1.35501849       1.35897207       1.35828000       0.00000000
Si       1.35868374       1.35784900      -1.35645050       0.00000000
Si       1.35967743      -1.35775521       1.36035112       0.00000000
Si      -0.01045818      -2.69343747       2.72632881       0.00000000
Si      -2.71378368       0.00066789      -2.71352234       0.00000000
Si      -2.71454931       2.71344715       0.00189853       0.00000000
Si      -2.71410948      -2.71407690       0.00207113       0.00000000
Si       0.00175932      -2.71528236      -2.71366041       0.00000000
Si       0.00089595       2.71563001      -2.71345330       0.00000000
