10
Lattice="16.28999089631971 0.0 0.0 0.0 16.28999089631971 0.0 0.0 0.0 34.51877397758722" Properties=species:S:1:pos:R:3:initial_magmoms:R:1 pbc="T T T"
Si      -1.86049719      -1.15758369       0.81705984       0.00000000
Si       2.10582459      -0.57888144       0.84995625       0.00000000
Si      -0.18746532       2.34948456       0.15184817       0.00000000
Si      -0.12786021      -0.25633944      -2.35677061       0.00000000
Si       0.89034624       2.78572588      -1.94927626       0.00000000
Si      -3.36952134      -0.86853393      -0.95962245       0.00000000
Si      -1.90689111      -1.78484643      -2.62242724       0.00000000
Si       3.41635576       1.35817875       0.43224433       0.00000000
Si      -2.52561789      -0.09355347       2.79112059       0.00000000
Si       2.04858153      -1.19483892       3.14228027       0.00000000
