10
Lattice="16.28999089631971 0.0 0.0 0.0 16.28999089631971 0.0 0.0 0.0 34.51877397758722" Properties=species:S:1:pos:R:3:initial_magmoms:R:1 pbc="T T T"
Si       1.15626257       1.41322266      -1.47930289       0.00000000
Si      -2.16262035       0.24368211      -0.94260469       0.00000000
Si      -0.37101452       0.67711014       2.24958976       0.00000000
Si       1.20179312      -2.07366813       0.20752699       0.00000000
Si      -3.30658560      -0.68229036       0.81505775       0.00000000
Si       2.79990728      -0.12950550      -2.28117445       0.00000000
Si       2.60125073      -1.58568489       2.06805542       0.00000000
Si      -0.49775007       2.22350355      -3.00544777       0.00000000
Si       1.03711262      -0.66093417       3.58919509       0.00000000
Si      -0.44294758      -3.70338652       0.74909233       0.00000000
