10
Lattice="16.28999089631971 0.0 0.0 0.0 16.28999089631971 0.0 0.0 0.0 34.51877397758722" Properties=species:S:1:pos:R:3:initial_magmoms:R:1 pbc="T T T"
Si      -1.37887261       0.18471231      -1.86087363       0.00000000
Si       2.27555173      -0.51341193      -0.47159575       0.00000000
Si       0.35649036       2.31295194       0.62423786       0.00000000
Si      -1.23073135      -1.44088308       1.54226516       0.00000000
Si      -1.68325126       2.50447347      -1.83550231       0.00000000
Si       3.24161389      -0.08244369       1.61993245       0.00000000
Si       0.48390748      -2.93203710       2.36716077       0.00000000
Si       1.40059954       2.30413905       2.72166877       0.00000000
Si       2.50411672      -2.89624797      -0.85931084       0.00000000
Si      -0.33189802      -0.12916341      -3.96344784       0.00000000
