10
Lattice="16.28999089631971 0.0 0.0 0.0 16.28999089631971 0.0 0.0 0.0 34.51877397758722" Properties=species:S:1:pos:R:3:initial_magmoms:R:1 pbc="T T T"
Si      -1.35621411       1.35399222       1.36176639       0.00000000
Si       1.33896795       1.37251395      -1.36876335       0.00000000
Si       1.35972141      -1.36107837       1.36135217       0.00000000
Si      -1.36046157      -1.35483930      -1.38834241       0.00000000
Si      -2.71175950       2.70642060       0.00210565       0.00000000
Si       2.71674357       2.71075374      -0.00189853       0.00000000
Si       0.00211607       2.71112841       2.71814786       0.00000000
Si      -2.71286722      -0.00329058       2.71814786       0.00000000
Si       2.71689018      -2.71665072      -0.00113912       0.00000000
Si      -2.71465912      -2.71943631       0.00017259       0.00000000
