10
Lattice="16.28999089631971 0.0 0.0 0.0 16.28999089631971 0.0 0.0 0.0 34.51877397758722" Properties=species:S:1:pos:R:3:initial_magmoms:R:1 pbc="T T T"
Si       1.29692835      -1.26527688      -1.47515373       0.00000000
Si      -1.33896795      -1.37251395       1.36876335       0.00000000
Si       1.37777562       1.33823979       1.36686482       0.00000000
Si      -1.17468656       1.57941324      -1.45062467       0.00000000
Si       2.16064044       0.63860058      -2.96153093       0.00000000
Si      -2.69147705       2.71318095      -0.00342081       0.00000000
Si      -2.69518206      -0.01852173       2.73052975       0.00000000
Si      -2.69942952      -2.72735325      -0.01957906       0.00000000
Si       0.02029734       2.69741223       2.72956322       0.00000000
Si       0.56088099       2.56363875      -2.82549237       0.00000000
