10
Lattice="16.28999089631971 0.0 0.0 0.0 16.28999089631971 0.0 0.0 0.0 34.51877397758722" Properties=species:S:1:pos:R:3:initial_magmoms:R:1 pbc="T T T"
Si       1.80095724      -1.48212936       0.40728724       0.00000000
Si      -0.15260472       1.87450659       1.44899539       0.00000000
Si       0.14167413       0.59437323      -2.32194115       0.00000000
Si      -1.78569840      -1.49265270       0.60031633       0.00000000
Si      -0.51438933      -2.89803987       2.19232308       0.00000000
Si       1.66320900      -1.99839204       2.69160291       0.00000000
Si       2.08736802       2.81211012       1.40315443       0.00000000
Si       1.14932466      -3.60075789      -0.46355287       0.00000000
Si      -2.34800150       2.88686493       0.92254927       0.00000000
Si      -3.00836294      -1.86171894      -1.49815015       0.00000000
