10
Lattice="16.28999089631971 0.0 0.0 0.0 16.28999089631971 0.0 0.0 0.0 34.51877397758722" Properties=species:S:1:pos:R:3:initial_magmoms:R:1 pbc="T T T"
Si       2.31536449      -0.12251709      -0.13331158       0.00000000
Si      -0.84776974       1.94044851       1.04277823       0.00000000
Si      -0.73085671      -1.91322792       1.20915881       0.00000000
Si       0.71661665      -1.22792391      -2.39953940       0.00000000
Si       0.40543041       3.17410650      -0.84733282       0.00000000
Si       0.24819444       1.70429238      -3.07773013       0.00000000
Si       3.30991786       0.20140956       2.07737550       0.00000000
Si       0.37489480       2.30951475       3.14124471       0.00000000
Si       0.92315593      -2.72350881       2.73530370       0.00000000
Si      -1.50976276      -3.69763452      -0.11705323       0.00000000
