10
Lattice="16.28999089631971 0.0 0.0 0.0 16.28999089631971 0.0 0.0 0.0 34.51877397758722" Properties=species:S:1:pos:R:3:initial_magmoms:R:1 pbc="T T T"
Si       1.35384813       1.33926606       1.37453144       0.00000000
Si      -1.35925041      -1.37927430       1.37428981       0.00000000
Si       1.51679049      -1.13376771      -1.44720386       0.00000000
Si      -1.42744035       1.25612190      -1.50576844       0.00000000
Si      -0.15800952      -2.08463130      -2.75044506       0.00000000
Si      -2.17588440      -0.55820943      -2.88465413       0.00000000
Si      -2.72226729       2.68112223      -0.00403525       0.00000000
Si       2.69147705      -2.71318095       0.00342081       0.00000000
Si       2.71258889       2.70392823      -0.00081810       0.00000000
Si      -0.00186757       2.69821181       2.73315663       0.00000000
