10
Lattice="16.28999089631971 0.0 0.0 0.0 16.28999089631971 0.0 0.0 0.0 34.51877397758722" Properties=species:S:1:pos:R:3:initial_magmoms:R:1 pbc="T T T"
Si       1.35495333      -1.35896067      -1.36342330       0.00000000
Si      -1.35974259       1.35853713      -1.36183543       0.00000000
Si       1.35671265       1.34892603       1.37536680       0.00000000
Si      -1.37297333      -1.36522255       1.38265026       0.00000000
Si      -0.20233809       2.57859297       2.73944595       0.00000000
Si       2.71137276      -2.71553390      -0.00776673       0.00000000
Si       2.70989037       2.71740006      -0.00086297       0.00000000
Si       2.71187775      -0.00061902      -2.71970120       0.00000000
Si      -2.71514294      -2.71719697      -0.00048326       0.00000000
Si      -0.00348606       2.71471221      -2.71973572       0.00000000
