10
Lattice="16.28999089631971 0.0 0.0 0.0 16.28999089631971 0.0 0.0 0.0 34.51877397758722" Properties=species:S:1:pos:R:3:initial_magmoms:R:1 pbc="T T T"
Si       0.78584426      -1.95755301       1.13049048       0.00000000
Si      -1.42989940       1.10302848       1.60857577       0.00000000
Si       2.04652410       1.09472058      -0.69092817       0.00000000
Si      -0.45717463      -0.18244800      -2.49508742       0.00000000
Si      -1.38677977      -2.05324047      -1.35855615       0.00000000
Si      -2.16790156      -1.70667072       1.14094967       0.00000000
Si       2.68268118      -0.73511883       2.19681052       0.00000000
Si       0.62860829      -3.42736713      -1.09990683       0.00000000
Si       2.93872740       1.61626122       1.58634566       0.00000000
Si       3.58210095      -0.81588465      -1.16849567       0.00000000
