10
Lattice="16.28999089631971 0.0 0.0 0.0 16.28999089631971 0.0 0.0 0.0 34.71893929493243" Properties=species:S:1:pos:R:3:initial_magmoms:R:1 pbc="T T T"
Si       0.73401925      -1.87813926      -1.23314798       0.00000000
Si      -1.62365592      -0.77353065       1.59755817       0.00000000
Si       2.26568650       0.77028894       0.33420470       0.00000000
Si      -1.06288503       1.36826226      -1.70102066       0.00000000
Si       1.74424361      -0.61247142      -2.95732618       0.00000000
Si      -3.39063222      -0.83727342      -0.01045041       0.00000000
Si       0.09935760       0.90013653      -3.71194275       0.00000000
Si      -3.34795242       0.86868054      -1.62932601       0.00000000
Si       3.37816319       0.50810139      -1.73011515       0.00000000
Si       2.05127752      -3.23845200       0.18921832       0.00000000
