10
Lattice="16.28999089631971 0.0 0.0 0.0 16.28999089631971 0.0 0.0 0.0 34.71893929493243" Properties=species:S:1:pos:R:3:initial_magmoms:R:1 pbc="T T T"
Si       0.82292193      -1.44386415      -1.70355515       0.00000000
Si      -2.08744947      -0.76347972       0.90092226       0.00000000
Si       0.05551632       2.41464131      -0.45131174       0.00000000
Si       1.32672276      -1.12985811       1.87624725       0.00000000
Si      -2.34301676       0.96701742       2.62940562       0.00000000
Si      -0.12241935      -0.34459866      -3.64399775       0.00000000
Si       1.68401133       2.44306736      -2.20691061       0.00000000
Si       3.29300721      -1.44028035      -1.55860349       0.00000000
Si      -0.09164754      -3.68937549      -1.52621071       0.00000000
Si      -1.95279633      -3.04017012       1.87565702       0.00000000
