10
Lattice="16.28999089631971 0.0 0.0 0.0 16.28999089631971 0.0 0.0 0.0 34.71893929493243" Properties=species:S:1:pos:R:3:initial_magmoms:R:1 pbc="T T T"
Si       1.35716877       1.35772915      -1.35688634       0.00000000
Si      -1.35744570      -1.35738559      -1.35719881       0.00000000
Si      -1.35694071       1.35693094       1.35848342       0.00000000
Si       1.35641943      -1.35923827       1.35966386       0.00000000
Si      -0.00324171      -2.70430357       2.72342456       0.00000000
Si      -0.00040725      -2.71422418      -2.71429347       0.00000000
Si       2.71601541      -2.71292098      -0.00072910       0.00000000
Si       2.71495656       0.00019874      -2.71425875       0.00000000
Si      -2.71527421       0.00051313      -2.71439763       0.00000000
Si       2.71555929       2.71427890      -0.00024303       0.00000000
