10
Lattice="16.28999089631971 0.0 0.0 0.0 16.28999089631971 0.0 0.0 0.0 34.71893929493243" Properties=species:S:1:pos:R:3:initial_magmoms:R:1 pbc="T T T"
Si       0.70147998       1.80168703      -1.41236724       0.00000000
Si      -1.82838960      -0.75619972      -1.47850686       0.00000000
Si       1.82246004      -1.95757974      -0.13554281       0.00000000
Si      -0.16539237      -1.14040818       3.25979775       0.00000000
Si       2.07653517       0.50201707      -2.95482642       0.00000000
Si      -0.58784094       2.82484564       2.25503109       0.00000000
Si      -2.77612551      -2.49042564      -0.06638265       0.00000000
Si      -0.64477449      -2.21101956      -2.97169983       0.00000000
Si       1.84397913       3.34645144      -0.06586186       0.00000000
Si       3.40726527      -0.92534760      -1.57332433       0.00000000
