10
Lattice="16.28999089631971 0.0 0.0 0.0 16.28999089631971 0.0 0.0 0.0 34.71893929493243" Properties=species:S:1:pos:R:3:initial_magmoms:R:1 pbc="T T T"
Si       0.33909264      -2.07738455      -1.11742969       0.00000000
Si      -2.17388421      -0.16476683       1.00143364       0.00000000
Si      -0.19271070       1.52238684      -1.91363957       0.00000000
Si       1.77505614       0.37509354       1.80510810       0.00000000
Si       1.45192770       3.10184895      -1.28307384       0.00000000
Si      -0.38947761      -1.69046447      -3.35558736       0.00000000
Si      -2.53695573       1.64609310       2.42185568       0.00000000
Si      -2.46946626      -2.18814026       2.22388818       0.00000000
Si       2.62291806      -2.83141607      -1.14263565       0.00000000
Si       0.18883368       0.42516411      -4.01674049       0.00000000
