10
Lattice="16.28999089631971 0.0 0.0 0.0 16.28999089631971 0.0 0.0 0.0 34.71893929493243" Properties=species:S:1:pos:R:3:initial_magmoms:R:1 pbc="T T T"
Si      -0.55128618       0.17440074       2.23416499       0.00000000
Si      -0.22501377       2.10499380      -1.00657205       0.00000000
Si       2.30656626      -0.45844947      -0.12231489       0.00000000
Si      -1.88019180      -1.31116581      -0.57866088       0.00000000
Si      -1.11874833      -2.09554560       2.72477860       0.00000000
Si      -3.46499703       0.42028200      -1.04167292       0.00000000
Si       2.95862238       0.71954559      -2.05595258       0.00000000
Si       1.27586538       1.16892153       3.31711875       0.00000000
Si       2.43182007      -2.58216537      -1.19540847       0.00000000
Si       1.92241548       2.77332363      -1.72362270       0.00000000
