10
Lattice="16.28999089631971 0.0 0.0 0.0 16.28999089631971 0.0 0.0 0.0 34.71893929493243" Properties=species:S:1:pos:R:3:initial_magmoms:R:1 pbc="T T T"
Si       1.35659862       1.35454608      -1.35626140       0.00000000
Si      -1.35729909       1.35690813       1.35834454       0.00000000
Si       1.35764118      -1.35749457       1.35792791       0.00000000
Si      -1.35866745      -1.35796698      -1.35890004       0.00000000
Si      -2.71490769       2.71459818      -0.00006944       0.00000000
Si       0.00006516       2.71461447       2.71530032       0.00000000
Si       0.00317655      -2.71480995      -2.71516145       0.00000000
Si      -2.71591767      -0.00138465       2.71411988       0.00000000
Si      -2.71494027      -2.71520091      -0.00006944       0.00000000
Si       2.71555929       2.71469592       0.00027775       0.00000000
