10
Lattice="16.28999089631971 0.0 0.0 0.0 16.28999089631971 0.0 0.0 0.0 34.71893929493243" Properties=species:S:1:pos:R:3:initial_magmoms:R:1 pbc="T T T"
Si       1.41245703      -1.26343611      -1.41386016       0.00000000
Si      -1.30424256       1.47548304      -1.38608499       0.00000000
Si      -1.52953326      -1.11211830       1.49558858       0.00000000
Si       1.76207301       1.19679372       1.22471127       0.00000000
Si      -2.67203241      -2.65688271       0.14908321       0.00000000
Si       2.84798070      -2.49294015       0.01645679       0.00000000
Si       0.05953995      -2.60991864      -2.77855826       0.00000000
Si      -2.65810446       0.10990863      -2.76935774       0.00000000
Si       3.59626185      -0.47728071       1.26817940       0.00000000
Si      -2.59364493       2.89781181       0.19741200       0.00000000
