10
Lattice="16.28999089631971 0.0 0.0 0.0 16.28999089631971 0.0 0.0 0.0 34.71893929493243" Properties=species:S:1:pos:R:3:initial_magmoms:R:1 pbc="T T T"
Si       1.03192263      -1.41393942      -1.67147483       0.00000000
Si      -1.45199286       1.07859348      -1.65293490       0.00000000
Si      -1.39989744      -1.93554522       0.64941812       0.00000000
Si       0.35502426       0.89028108       2.37203398       0.00000000
Si      -3.31692093      -0.58222089       1.02299412       0.00000000
Si       1.37925801       3.17715273      -1.04629054       0.00000000
Si      -3.49532901       1.28997252      -0.39850421       0.00000000
Si      -0.71254089      -2.42738919       2.90865020       0.00000000
Si      -0.03218904       2.59599069      -2.96965141       0.00000000
Si       2.59046838       0.41023107       2.97329690       0.00000000
