10
Lattice="16.28999089631971 0.0 0.0 0.0 16.28999089631971 0.0 0.0 0.0 34.71893929493243" Properties=species:S:1:pos:R:3:initial_magmoms:R:1 pbc="T T T"
Si       2.05889310      -0.09501957       1.13562242       0.00000000
Si       0.09436797      -0.64477449      -2.28447276       0.00000000
Si      -1.18109016      -1.77973137       1.10052155       0.00000000
Si      -0.72907524       2.33583939       0.10821899       0.00000000
Si       1.72418247       1.77091848       2.46528910       0.00000000
Si      -2.13752493      -0.26648811      -2.85844659       0.00000000
Si       1.31098662       3.36903264       0.77614232       0.00000000
Si      -0.95876424       2.99454183      -2.09799724       0.00000000
Si       2.28390687      -2.20001337       2.14219447       0.00000000
Si       0.40371507      -3.51117918       1.56353359       0.00000000
