10
Lattice="16.28999089631971 0.0 0.0 0.0 16.28999089631971 0.0 0.0 0.0 34.71893929493243" Properties=species:S:1:pos:R:3:initial_magmoms:R:1 pbc="T T T"
Si       0.30937968       0.46309212      -2.25280907       0.00000000
Si      -1.46186786      -1.83693438       0.35941066       0.00000000
Si       2.11251978      -0.20559609       1.11878373       0.00000000
Si      -1.24051608       1.88304092       0.83044277       0.00000000
Si       1.74944826       1.60526384       2.53920576       0.00000000
Si      -2.06423459       0.44410124      -2.79331382       0.00000000
Si       0.18301815      -3.34954233       1.11402723       0.00000000
Si      -3.48279290      -0.22479874      -0.91675410       0.00000000
Si       1.81693773      -2.22896952       2.34123826       0.00000000
Si       1.82693979       2.31760925      -2.25211469       0.00000000
