10
Lattice="16.28999089631971 0.0 0.0 0.0 16.28999089631971 0.0 0.0 0.0 34.71893929493243" Properties=species:S:1:pos:R:3:initial_magmoms:R:1 pbc="T T T"
Si      -1.35637056      -1.35767376       1.35740713       0.00000000
Si       1.35941679       1.35744570       1.35744185       0.00000000
Si      -1.35687555       1.35874890      -1.35900420       0.00000000
Si       1.36146933      -1.35879777      -1.36240666       0.00000000
Si      -2.71282257      -2.71666701       0.00090269       0.00000000
Si      -2.71396287       0.00057015       2.71554335       0.00000000
Si       0.00516393       2.71088406      -2.71866806       0.00000000
Si      -2.71419093       2.71575477       0.00038191       0.00000000
Si       0.00104256       2.71562445       2.71474482       0.00000000
Si       2.71531494       2.71577106       0.00076382       0.00000000
