10
Lattice="16.28999089631971 0.0 0.0 0.0 16.28999089631971 0.0 0.0 0.0 34.71893929493243" Properties=species:S:1:pos:R:3:initial_magmoms:R:1 pbc="T T T"
Si       1.79791101       0.41347767       1.49027658       0.00000000
Si      -0.00851967      -2.37418835       0.05318944       0.00000000
Si       1.03646754       1.19785746      -1.81316290       0.00000000
Si      -2.21397227       0.96010491       0.14002156       0.00000000
Si       0.16941600       0.38505162       3.24587545       0.00000000
Si       1.10395701      -2.63637590      -2.01113040       0.00000000
Si      -1.44536283       3.22754259      -0.04687059       0.00000000
Si       1.39953906      -0.61300247      -3.23358494       0.00000000
Si       2.36537316       2.68342401       0.99966298       0.00000000
Si      -0.54833769       2.92930527      -2.27617493       0.00000000
