10
Lattice="16.28999089631971 0.0 0.0 0.0 16.28999089631971 0.0 0.0 0.0 34.71893929493243" Properties=species:S:1:pos:R:3:initial_magmoms:R:1 pbc="T T T"
Si       1.35550719       1.34993601      -1.39966010       0.00000000
Si      -1.36075257      -1.36459701      -1.39771584       0.00000000
Si       1.41915222      -1.28935350       1.56901918       0.00000000
Si      -1.43672913       1.38996054       1.47048678       0.00000000
Si       2.71616202       2.70280422      -0.01010322       0.00000000
Si       2.70855459      -2.71168227      -0.01447781       0.00000000
Si      -2.72046747       2.71306692      -0.03187200       0.00000000
Si      -2.72084377      -2.72047887      -0.00496481       0.00000000
Si      -0.00254124       2.70984150      -2.76262226       0.00000000
Si       2.71239903      -0.00718389      -2.76158069       0.00000000
