10
Lattice="16.28999089631971 0.0 0.0 0.0 16.28999089631971 0.0 0.0 0.0 34.71893929493243" Properties=species:S:1:pos:R:3:initial_magmoms:R:1 pbc="T T T"
Si       1.41144705       0.58116204       1.92336087       0.00000000
Si      -1.41980382      -1.51739721       1.31671651       0.00000000
Si      -1.41915222       1.28935350      -1.56901918       0.00000000
Si       1.28940237      -1.42232877      -1.58349699       0.00000000
Si       2.59364493      -2.89781181      -0.19741200       0.00000000
Si       2.80697877       2.72487717       0.08249225       0.00000000
Si      -2.85588135       2.67931404      -0.09853240       0.00000000
Si       0.03218904      -2.59599069       2.96965141       0.00000000
Si      -0.06364503       2.63928951      -2.96867928       0.00000000
Si       2.64878658      -0.07565076      -2.96906119       0.00000000
