10
Lattice="16.28999089631971 0.0 0.0 0.0 16.28999089631971 0.0 0.0 0.0 34.71893929493243" Properties=species:S:1:pos:R:3:initial_magmoms:R:1 pbc="T T T"
Si       2.03023899       0.67838076       0.93803683       0.00000000
Si      -1.29070557       1.71823662       0.95511855       0.00000000
Si      -0.80765820      -2.05306128       0.83363692       0.00000000
Si       0.07397289      -0.04357575      -2.57750077       0.00000000
Si      -2.26569465      -2.64979656      -0.97969958       0.00000000
Si       2.18266452       2.90325267       0.18703103       0.00000000
Si      -0.10116090       3.65728419       0.21223699       0.00000000
Si       0.93123414      -3.67005555       0.59733968       0.00000000
Si       2.02642713       0.48324285       3.25080554       0.00000000
Si      -1.87369209      -1.41801192      -3.06828797       0.00000000
