10
Lattice="16.28999089631971 0.0 0.0 0.0 16.28999089631971 0.0 0.0 0.0 34.71893929493243" Properties=species:S:1:pos:R:3:initial_magmoms:R:1 pbc="T T T"
Si      -1.35738054      -1.35625653       1.35699050       0.00000000
Si      -1.35749457       1.35721764      -1.35674747       0.00000000
Si       1.35837423      -1.35817875      -1.35730297       0.00000000
Si       1.35892809       1.35852084       1.35681691       0.00000000
Si       0.00053757       2.71348387      -2.71377269       0.00000000
Si       2.71427238       0.00014661      -2.71398100       0.00000000
Si      -2.71453302       2.71405623       0.00034719       0.00000000
Si       2.71505430       2.71426663       0.00006944       0.00000000
Si      -0.00066789       2.71220355       2.71720986       0.00000000
Si      -2.71523349       0.00013032      -2.71436291       0.00000000
