10
Lattice="16.28999089631971 0.0 0.0 0.0 16.28999089631971 0.0 0.0 0.0 34.71893929493243" Properties=species:S:1:pos:R:3:initial_magmoms:R:1 pbc="T T T"
Si       1.31625155      -1.29400497       1.38614054       0.00000000
Si       0.89650712       1.86166844      -1.16553454       0.00000000
Si      -0.70641585      -1.83978513      -1.33849943       0.00000000
Si      -1.42459406       1.38578867       1.32813905       0.00000000
Si       1.93918115       0.13891786      -2.47106776       0.00000000
Si       0.06433898      -1.08440738      -3.44903139       0.00000000
Si       2.59242644      -2.69370693       0.11430176       0.00000000
Si      -2.68663218      -2.63081124      -0.14351429       0.00000000
Si      -0.05301418      -2.66234868       2.70280150       0.00000000
Si       2.66279924       0.05067982       2.70259318       0.00000000
