10
Lattice="16.28999089631971 0.0 0.0 0.0 16.28999089631971 0.0 0.0 0.0 34.71893929493243" Properties=species:S:1:pos:R:3:initial_magmoms:R:1 pbc="T T T"
Si      -1.19724821      -0.37872621      -1.99953427       0.00000000
Si      -1.69188822      -0.25456383       1.67762008       0.00000000
Si       0.76860944       2.26743768      -0.18689215       0.00000000
Si       2.21397227      -0.96010491      -0.14002156       0.00000000
Si       0.07206533       0.39117177       3.14352396       0.00000000
Si       1.66563458       1.96920036      -2.41619649       0.00000000
Si      -1.12311894      -2.73631994      -2.12205747       0.00000000
Si       0.26047547       0.51552963      -3.66194745       0.00000000
Si      -3.43472274       0.35528490      -1.40316672       0.00000000
Si       3.25043981       0.23775255      -1.95318446       0.00000000
