10
Lattice="16.28999089631971 0.0 0.0 0.0 16.28999089631971 0.0 0.0 0.0 34.71893929493243" Properties=species:S:1:pos:R:3:initial_magmoms:R:1 pbc="T T T"
Si       0.38486754       0.22413085      -2.27662628       0.00000000
Si       1.69958457       0.29119841       1.56613751       0.00000000
Si      -2.07899496       0.52815927       1.00771778       0.00000000
Si       0.43114743      -2.50866882      -0.10995494       0.00000000
Si       1.61986131      -2.09806308       1.95634388       0.00000000
Si       2.09912940      -1.51421319      -2.25687119       0.00000000
Si      -2.65730625      -1.58746932       1.66887091       0.00000000
Si      -1.86883767      -3.15844434       0.02555315       0.00000000
Si       1.15124688       2.27452220       2.74297133       0.00000000
Si      -1.41954318      -0.79691562      -3.43259401       0.00000000
