10
Lattice="16.28999089631971 0.0 0.0 0.0 16.28999089631971 0.0 0.0 0.0 34.71893929493243" Properties=species:S:1:pos:R:3:initial_magmoms:R:1 pbc="T T T"
Si      -0.38486754      -0.22413085       2.27662628       0.00000000
Si      -1.80441072      -1.02104647      -1.15596773       0.00000000
Si       1.00981710       1.86993073      -1.12763706       0.00000000
Si       1.71426186      -1.73834404       0.01975509       0.00000000
Si       2.28965724       0.42758644      -2.56496723       0.00000000
Si       0.04627989      -2.73279967       2.16667134       0.00000000
Si      -0.43810326      -2.32338310      -2.56580049       0.00000000
Si       3.57866865      -0.87496066      -1.14940585       0.00000000
Si       1.00271466      -3.57333109      -1.24727859       0.00000000
Si      -3.38921595      -2.05327861       0.28181379       0.00000000
