10
Lattice="16.28999089631971 0.0 0.0 0.0 16.28999089631971 0.0 0.0 0.0 34.71893929493243" Properties=species:S:1:pos:R:3:initial_magmoms:R:1 pbc="T T T"
Si      -1.64463840      -1.57946211      -0.63056573       0.00000000
Si       1.96714782      -0.93032190      -0.99841310       0.00000000
Si      -0.60838263       2.09420982      -1.02174424       0.00000000
Si       0.84993075       0.57495555       2.22763783       0.00000000
Si       2.75517657       1.10224656      -1.93908856       0.00000000
Si      -1.45192770      -3.10184895       1.28307384       0.00000000
Si      -0.18627615       2.62873359       2.55996770       0.00000000
Si       3.17482326       0.66536505       1.78965816       0.00000000
Si       3.48491970      -1.35446463       0.69910095       0.00000000
Si       0.80480745       2.19335076      -3.00423150       0.00000000
