10
Lattice="16.28999089631971 0.0 0.0 0.0 16.28999089631971 0.0 0.0 0.0 34.71893929493243" Properties=species:S:1:pos:R:3:initial_magmoms:R:1 pbc="T T T"
Si      -0.12525381       2.12371590       1.07309358       0.00000000
Si      -0.03670137      -1.47089156       1.90742487       0.00000000
Si       2.28367881      -0.18863494      -0.79839717       0.00000000
Si      -1.77505614      -0.37509354      -1.80510810       0.00000000
Si       0.52680231       3.30171096      -0.86054411       0.00000000
Si       2.31226776      -2.45511707      -1.30737711       0.00000000
Si      -2.43182007       2.58216537       1.19540847       0.00000000
Si       2.27279709      -1.31309033       2.77987759       0.00000000
Si       3.77001099      -0.44702529       1.04160348       0.00000000
Si      -0.52504299      -3.76739060       1.22217678       0.00000000
