10
Lattice="16.28999089631971 0.0 0.0 0.0 16.28999089631971 0.0 0.0 0.0 34.71893929493243" Properties=species:S:1:pos:R:3:initial_magmoms:R:1 pbc="T T T"
Si      -1.41319008      -0.09914094       1.98248726       0.00000000
Si       1.95036912      -1.09110420       1.06514293       0.00000000
Si       0.31987044       0.38560059      -2.93316179       0.00000000
Si      -0.18826353       3.00724803      -2.03237840       0.00000000
Si       3.34635696      -1.33007850      -0.77996141       0.00000000
Si      -0.80480745      -2.19335076       3.00423150       0.00000000
Si       2.15405928      -1.28847384      -2.88969365       0.00000000
Si       1.16234037      -3.12367266       2.00581840       0.00000000
Si      -3.64863420       0.38090907       1.38122433       0.00000000
Si      -0.88524747       1.59006690       3.55497834       0.00000000
