10
Lattice="16.28999089631971 0.0 0.0 0.0 16.28999089631971 0.0 0.0 0.0 34.71893929493243" Properties=species:S:1:pos:R:3:initial_magmoms:R:1 pbc="T T T"
Si      -0.92504394      -1.34258922       1.67046798       0.00000000
Si       1.53194418      -1.47575997      -1.09114743       0.00000000
Si       1.00305675       1.61223759       1.48034696       0.00000000
Si      -0.98034849       1.75661586      -1.35810151       0.00000000
Si      -2.04364566       1.66775391       1.51187178       0.00000000
Si      -3.10612833      -0.56053890       1.35622668       0.00000000
Si       0.77574609       1.96589349      -2.97600498       0.00000000
Si      -0.19870542      -3.55817583       1.19606813       0.00000000
Si       3.46783149      -0.17150112      -1.54416041       0.00000000
Si       2.12706675      -3.10567221       0.63566941       0.00000000
