10
Lattice="16.28999089631971 0.0 0.0 0.0 16.28999089631971 0.0 0.0 0.0 34.71893929493243" Properties=species:S:1:pos:R:3:initial_magmoms:R:1 pbc="T T T"
Si       1.26675927       1.84813308       0.47599692       0.00000000
Si       0.00381186       0.19513791      -2.31276871       0.00000000
Si       0.81868653      -2.07655146       0.75097108       0.00000000
Si      -1.21666752       1.85912883       1.10614602       0.00000000
Si       2.07264186      -0.85250457      -2.30804694       0.00000000
Si      -1.25183763       0.74619603       3.15025944       0.00000000
Si      -3.33236385       1.36418976       0.10158767       0.00000000
Si       2.26751913      -2.79494046      -0.91428906       0.00000000
Si       1.87471836      -1.73863170       2.81879754       0.00000000
Si       1.06738596       0.32739642       3.66715529       0.00000000
