10
Lattice="16.28999089631971 0.0 0.0 0.0 16.28999089631971 0.0 0.0 0.0 34.71893929493243" Properties=species:S:1:pos:R:3:initial_magmoms:R:1 pbc="T T T"
Si      -1.30771233       1.45920933       1.29619760       0.00000000
Si       1.33998282       1.35531171      -1.37504436       0.00000000
Si      -1.37795481      -1.35798327      -1.37372504       0.00000000
Si       1.47424500      -1.34442999       1.38670993       0.00000000
Si      -2.25960219       0.22610520       2.97853947       0.00000000
Si       2.68925094       2.71938744       0.01708173       0.00000000
Si       2.70726768      -2.71780731      -0.02787932       0.00000000
Si       2.69651628      -0.00017919      -2.73425687       0.00000000
Si      -2.74457178      -2.69423568       0.00458290       0.00000000
Si      -0.01826109       2.71542897      -2.73238205       0.00000000
