10
Lattice="16.28999089631971 0.0 0.0 0.0 16.28999089631971 0.0 0.0 0.0 34.71893929493243" Properties=species:S:1:pos:R:3:initial_magmoms:R:1 pbc="T T T"
Si       0.17840808      -1.87219341       1.42149833       0.00000000
Si      -0.84017141       1.65050280       1.49524139       0.00000000
Si       2.04333615      -0.21137904      -1.25443070       0.00000000
Si      -0.87590516      -2.73888657      -1.28446260       0.00000000
Si       0.68183424      -1.55724255      -2.69627433       0.00000000
Si      -2.12897987      -2.52851751       0.93102360       0.00000000
Si      -1.09919544       3.11098275      -1.25706934       0.00000000
Si      -2.10544082       1.34270325      -2.65044531       0.00000000
Si      -3.20371262       1.42122105       1.09722325       0.00000000
Si       3.49532901      -1.28997252       0.39850421       0.00000000
