10
Lattice="16.28999089631971 0.0 0.0 0.0 16.28999089631971 0.0 0.0 0.0 34.71893929493243" Properties=species:S:1:pos:R:3:initial_magmoms:R:1 pbc="T T T"
Si      -1.18095888      -1.44039438      -1.47378508       0.00000000
Si       1.55773939       1.18164402      -1.41181174       0.00000000
Si      -1.25307471       0.21036906       2.21548619       0.00000000
Si       1.05431323       0.86669316       2.70596092       0.00000000
Si       0.87590516       2.73888657       1.28446260       0.00000000
Si      -3.17596260      -1.21503852       1.50680281       0.00000000
Si      -2.60403699      -2.74677093      -0.13252227       0.00000000
Si       2.97133672      -0.48663117       2.33238493       0.00000000
Si      -2.52532371      -0.08856873      -2.87854887       0.00000000
Si       2.91924130       2.52750753       0.03003190       0.00000000
