10
Lattice="16.28999089631971 0.0 0.0 0.0 16.28999089631971 0.0 0.0 0.0 34.71893929493243" Properties=species:S:1:pos:R:3:initial_magmoms:R:1 pbc="T T T"
Si      -2.30650110       0.23807835       0.50026548       0.00000000
Si       0.74129274      -2.25452690      -0.17991364       0.00000000
Si       0.87584814       1.27811340      -1.81045482       0.00000000
Si       1.30888425       1.25732736       1.59578750       0.00000000
Si       2.63980169       1.92384900      -0.34455095       0.00000000
Si      -2.38510035      -1.43193077       2.17989926       0.00000000
Si       2.80815884      -2.22049709       0.97001299       0.00000000
Si       2.55259154      -0.48999994       2.69849635       0.00000000
Si      -0.99398322       2.58901857      -2.62947506       0.00000000
Si      -2.50971885       2.41297254       1.84545153       0.00000000
