10
Lattice="16.28999089631971 0.0 0.0 0.0 16.28999089631971 0.0 0.0 0.0 34.71893929493243" Properties=species:S:1:pos:R:3:initial_magmoms:R:1 pbc="T T T"
Si      -1.35495333       1.35672894      -1.36372598       0.00000000
Si       1.36078908      -1.35933534      -1.36330935       0.00000000
Si      -1.36739889      -1.34514675       1.37490548       0.00000000
Si       1.35697396       1.35720135       1.39278575       0.00000000
Si      -2.71178001       2.71151937      -0.00916581       0.00000000
Si      -2.71446786      -2.71562445      -0.00645773       0.00000000
Si       2.71706516       2.71308321       0.00003472       0.00000000
Si      -2.71246419      -0.00118917      -2.72092479       0.00000000
Si       0.00246072       2.71358820      -2.72120254       0.00000000
Si       2.71862900      -2.71783989      -0.00583279       0.00000000
