10
Lattice="16.28999089631971 0.0 0.0 0.0 16.28999089631971 0.0 0.0 0.0 34.71893929493243" Properties=species:S:1:pos:R:3:initial_magmoms:R:1 pbc="T T T"
Si      -1.34563545      -1.36039419       1.35056749       0.00000000
Si       1.35768258      -1.35527913      -1.35553230       0.00000000
Si      -1.35638685       1.35723393      -1.35581006       0.00000000
Si       1.35523256       1.36306575       1.37434998       0.00000000
Si      -2.57865813       0.01298313       2.76515675       0.00000000
Si      -2.71292031       2.71272483       0.00340246       0.00000000
Si       0.00034302      -2.71409319      -2.71273112       0.00000000
Si      -2.71371852       0.00014661      -2.71328662       0.00000000
Si       2.71553390       0.00104256      -2.71259224       0.00000000
Si       0.00136667       2.71497285      -2.71328662       0.00000000
