10
Lattice="16.28999089631971 0.0 0.0 0.0 16.28999089631971 0.0 0.0 0.0 34.71893929493243" Properties=species:S:1:pos:R:3:initial_magmoms:R:1 pbc="T T T"
Si      -1.40515911      -1.45367073      -1.24575096       0.00000000
Si       1.58480523      -1.73144781       0.46301203       0.00000000
Si       1.18109016       1.77973137      -1.10052155       0.00000000
Si      -0.89702514       0.29823732       2.22930434       0.00000000
Si      -1.66563458      -1.96920036       2.41619649       0.00000000
Si      -2.36247680       0.07791507      -2.73811068       0.00000000
Si       3.46499703      -0.42028200       1.04167292       0.00000000
Si       3.23998326       1.68471180       0.03510087       0.00000000
Si      -2.86288279      -2.34792657       0.41666222       0.00000000
Si       0.54833769      -2.92930527       2.27617493       0.00000000
