10
Lattice="16.28999089631971 0.0 0.0 0.0 16.28999089631971 0.0 0.0 0.0 34.71893929493243" Properties=species:S:1:pos:R:3:initial_magmoms:R:1 pbc="T T T"
Si      -1.36099692      -1.36014984       1.38411990       0.00000000
Si       1.35578412       1.35793344       1.39196638       0.00000000
Si       1.43207019      -1.32507747      -1.45216211       0.00000000
Si      -1.48124970       1.32610441      -1.42778593       0.00000000
Si       2.69141639      -2.69343747       0.05288392       0.00000000
Si       2.69410831       2.69152244       0.01949122       0.00000000
Si      -2.71634121      -2.72315043      -0.00637440       0.00000000
Si      -2.72761389       2.71250396       0.02790710       0.00000000
Si      -0.00332316       2.71149398       2.74822778       0.00000000
Si       2.71185730      -0.00379831       2.75010261       0.00000000
