10
Lattice="16.28999089631971 0.0 0.0 0.0 16.28999089631971 0.0 0.0 0.0 34.71893929493243" Properties=species:S:1:pos:R:3:initial_magmoms:R:1 pbc="T T T"
Si      -1.14214077      -0.58929075       1.90662634       0.00000000
Si       2.06024258      -1.01517651       0.21102183       0.00000000
Si       1.06749999       2.02945285       0.54737910       0.00000000
Si      -1.27454589      -0.62884287      -1.91016767       0.00000000
Si       0.01992267       0.94226247      -3.36704461       0.00000000
Si      -0.57744792       3.49769825      -0.30208966       0.00000000
Si       2.82603874      -0.81448371      -2.02908010       0.00000000
Si       3.08842503       0.41731722       1.82354387       0.00000000
Si      -0.99984762      -2.93503446       2.04810609       0.00000000
Si      -1.19982366       2.65744050      -2.37165207       0.00000000
