10
Lattice="16.28999089631971 0.0 0.0 0.0 16.28999089631971 0.0 0.0 0.0 34.71893929493243" Properties=species:S:1:pos:R:3:initial_magmoms:R:1 pbc="T T T"
Si       1.35123921      -1.35228177      -1.35761544       0.00000000
Si      -1.35850944      -1.35536058       1.35733769       0.00000000
Si       1.35645201       1.35899325       1.35650444       0.00000000
Si      -1.35897533       1.36306575      -1.36087902       0.00000000
Si       2.69317683       0.00837306      -2.73188904       0.00000000
Si       2.71269225      -2.71357191      -0.00232617       0.00000000
Si      -0.00115659      -2.71336014       2.71415460       0.00000000
Si       2.71406061       0.00130320       2.71491841       0.00000000
Si       2.71282257       2.71666701      -0.00090269       0.00000000
Si      -2.71669049      -2.71295289      -0.00072910       0.00000000
