10
Lattice="16.28999089631971 0.0 0.0 0.0 16.28999089631971 0.0 0.0 0.0 34.71893929493243" Properties=species:S:1:pos:R:3:initial_magmoms:R:1 pbc="T T T"
Si      -1.35726488       1.35931905      -1.36403845       0.00000000
Si       1.35716877      -1.35858600      -1.36504530       0.00000000
Si      -1.36009120      -1.35588186       1.39275103       0.00000000
Si       1.36075257       1.36459701       1.39771584       0.00000000
Si       2.71544526      -2.71265967      -0.00003472       0.00000000
Si      -2.71494746       2.71459818      -0.00850614       0.00000000
Si      -2.71706516      -2.71308321      -0.00003472       0.00000000
Si       2.71625976       2.71453302      -0.00194426       0.00000000
Si      -2.71460444       0.00050499      -2.72123726       0.00000000
Si       0.00057015      -2.71495656      -2.72158445       0.00000000
