10
Lattice="16.28999089631971 0.0 0.0 0.0 16.28999089631971 0.0 0.0 0.0 34.71893929493243" Properties=species:S:1:pos:R:3:initial_magmoms:R:1 pbc="T T T"
Si      -0.90516851      -2.22948198      -0.12050951       0.00000000
Si      -1.79773996       1.47789396      -0.63712761       0.00000000
Si       2.11545198       1.09009422      -0.67059669       0.00000000
Si       0.64187487       0.36929430       2.44761715       0.00000000
Si      -1.16419254      -0.76900203      -2.87282024       0.00000000
Si      -0.83340292       3.30629985       0.45030489       0.00000000
Si       1.51352019       3.10324500       0.87363316       0.00000000
Si       1.27782018      -1.80397089       2.82119315       0.00000000
Si      -0.69533865      -2.86114302       2.18969001       0.00000000
Si       1.56361194       1.90330731      -2.95118093       0.00000000
