10
Lattice="16.28999089631971 0.0 0.0 0.0 16.28999089631971 0.0 0.0 0.0 34.71893929493243" Properties=species:S:1:pos:R:3:initial_magmoms:R:1 pbc="T T T"
Si      -1.31725827       1.36031274      -1.42236630       0.00000000
Si       0.24518079       0.66396411       2.26277341       0.00000000
Si       2.18652525       0.03476286      -1.00789137       0.00000000
Si      -0.96448203      -2.20610583       0.15203432       0.00000000
Si      -1.91863294      -2.32207434      -2.01179006       0.00000000
Si       2.21553774      -0.58169961       2.82796334       0.00000000
Si      -2.86183697      -0.08726553      -2.37328386       0.00000000
Si       3.63200211      -0.45981783       0.85741940       0.00000000
Si       1.15975026       2.90947545       2.08542897       0.00000000
Si       2.16666774      -1.82899233      -2.50875724       0.00000000
