10
Lattice="16.28999089631971 0.0 0.0 0.0 16.28999089631971 0.0 0.0 0.0 34.71893929493243" Properties=species:S:1:pos:R:3:initial_magmoms:R:1 pbc="T T T"
Si      -0.02777445       1.35257499       1.95877421       0.00000000
Si      -2.16574640       0.42619527      -0.99178177       0.00000000
Si       1.83337434       0.70336962      -1.44309352       0.00000000
Si       0.02127474      -2.44032345       0.21150790       0.00000000
Si      -2.20754654       0.46112103       2.64287657       0.00000000
Si      -0.95316211      -2.88090279      -1.94985144       0.00000000
Si      -3.24319958       1.60793703       0.79752920       0.00000000
Si      -0.16242759       3.62926539       0.98403945       0.00000000
Si      -3.04034021      -1.68484212      -1.82920306       0.00000000
Si       3.80373129      -0.54229410      -0.87790359       0.00000000
