10
Lattice="16.28999089631971 0.0 0.0 0.0 16.28999089631971 0.0 0.0 0.0 34.71893929493243" Properties=species:S:1:pos:R:3:initial_magmoms:R:1 pbc="T T T"
Si       1.31650258      -1.36410831      -1.30951927       0.00000000
Si       1.37427180       1.33682256       1.34126976       0.00000000
Si      -1.33634903      -1.38202731       1.33828393       0.00000000
Si      -1.25934620       1.36836000      -1.50504603       0.00000000
Si      -0.63504824      -2.09725605      -2.44716476       0.00000000
Si       2.31752145       0.37618497      -2.44702971       0.00000000
Si       0.72087013       2.15938611      -2.70003117       0.00000000
Si      -2.24489120      -0.34606476      -2.74523644       0.00000000
Si      -2.69141639       2.69343747      -0.05288392       0.00000000
Si       0.02044091       2.68963916       2.69721869       0.00000000
