10
Lattice="16.28999089631971 0.0 0.0 0.0 16.28999089631971 0.0 0.0 0.0 34.71893929493243" Properties=species:S:1:pos:R:3:initial_magmoms:R:1 pbc="T T T"
Si       0.96433705       1.82840589       1.08743251       0.00000000
Si       1.79773996      -1.47789396       0.63712761       0.00000000
Si      -1.05474396      -0.38876085      -2.22086763       0.00000000
Si      -2.80896519      -0.13778082      -0.14606266       0.00000000
Si       0.63354742      -2.24689599      -2.23569263       0.00000000
Si       1.63988987       2.39132313      -2.25211469       0.00000000
Si      -2.70622416      -1.99018188       1.49187366       0.00000000
Si       0.19854089       1.62771309       3.32753444       0.00000000
Si       0.50719404       3.74966478      -0.16481090       0.00000000
Si       0.89257145      -3.70737594       0.51661811       0.00000000
