10
Lattice="16.28999089631971 0.0 0.0 0.0 16.28999089631971 0.0 0.0 0.0 34.71893929493243" Properties=species:S:1:pos:R:3:initial_magmoms:R:1 pbc="T T T"
Si      -2.06024258       1.01517651      -0.21102183       0.00000000
Si       0.21568286      -2.20597551       0.81030578       0.00000000
Si       0.76579616       0.20069280      -2.24010193       0.00000000
Si       1.02818245       1.43249373       1.61252204       0.00000000
Si      -0.99274259       3.04462936       0.33635727       0.00000000
Si       2.24107394      -2.73631275      -0.24278968       0.00000000
Si       2.67306845      -0.08011422       2.36713860       0.00000000
Si       3.11271926      -0.00236205      -1.81677367       0.00000000
Si      -3.20238335       0.42588576       1.69560450       0.00000000
Si      -1.78674977      -3.18373389       0.22393728       0.00000000
