10
Lattice="10.86 0.0 0.0 0.0 10.86 0.0 0.0 0.0 10.86" Properties=species:S:1:pos:R:3:initial_magmoms:R:1 pbc="T T T"
Si      -1.22411748       1.25335260      -1.43716896       0.00000000
Si       1.49088252       1.25335260       1.27783104       0.00000000
Si      -1.43780970      -1.44836562       1.15398360       0.00000000
Si       1.49088252      -1.46164740      -1.43716896       0.00000000
Si      -2.58161748       2.61085260      -0.07966896       0.00000000
Si      -2.80419318      -0.17903796       2.41444950       0.00000000
Si       0.13338252       2.61085260       2.63533104       0.00000000
Si      -2.58161748      -0.10414740      -2.79466896       0.00000000
Si       0.13338252       2.61085260      -2.79466896       0.00000000
Si       2.84838252       2.61085260      -0.07966896       0.00000000
