10
Lattice="16.290000149 0.0 0.0 0.0 16.290000149 0.0 0.0 0.0 29.1751946751" Properties=species:S:1:pos:R:3:initial_magmoms:R:1 pbc="T T T"
Si      -1.35837424      -1.31101921       1.40059898       0.00000000
Si       1.33796287       1.37409409       1.36380906       0.00000000
Si      -1.36928854       1.35607735      -1.36049768       0.00000000
Si       1.42438132      -1.37622808      -1.29627724       0.00000000
Si      -2.67952583      -2.65023641       0.00602760       0.00000000
Si      -2.54602928      -0.10379988      -2.81337861       0.00000000
Si       2.67344966       0.00379557      -2.72080572       0.00000000
Si       2.69746112       2.72971532       0.01155921       0.00000000
Si      -0.00597843      -2.67887423       2.75491152       0.00000000
Si       2.80163568      -2.64372041       0.11772775       0.00000000
