10
Lattice="16.290000149 0.0 0.0 0.0 16.290000149 0.0 0.0 0.0 29.1751946751" Properties=species:S:1:pos:R:3:initial_magmoms:R:1 pbc="T T T"
Si      -1.34403904       1.35689185      -1.36860838       0.00000000
Si       1.32828498      -1.34933329      -1.39451596       0.00000000
Si       1.34833797       1.37893222       1.35057811       0.00000000
Si      -1.34416936      -1.37143882       1.36291922       0.00000000
Si       2.66804138      -2.70894557      -0.03343477       0.00000000
Si      -2.68817582       2.72306900      -0.01881800       0.00000000
Si      -2.70989039      -2.71221986      -0.00811070       0.00000000
Si      -2.72746731      -0.02710656       2.69829705       0.00000000
Si       2.71946891       0.03618009       2.70626188       0.00000000
Si       0.00384173       2.71199180      -2.72458391       0.00000000
