10
Lattice="16.290000149 0.0 0.0 0.0 16.290000149 0.0 0.0 0.0 29.1751946751" Properties=species:S:1:pos:R:3:initial_magmoms:R:1 pbc="T T T"
Si       1.72274897      -0.75864160      -1.37686496       0.00000000
Si       1.34153038       1.35493705       1.34929440       0.00000000
Si      -1.43310136       1.17421579      -1.46001427       0.00000000
Si      -1.18486782      -1.69404599       1.19306124       0.00000000
Si      -1.65372498      -0.67675177      -2.89356663       0.00000000
Si       0.65700829      -0.84892078      -3.48293474       0.00000000
Si       2.57616578      -2.60037272      -0.25516625       0.00000000
Si      -2.65021507      -0.42696090       2.54048843       0.00000000
Si      -0.12610089       2.55181223       2.69108932       0.00000000
Si       2.62987391      -0.14617017       2.68086954       0.00000000
