10
Lattice="16.290000149 0.0 0.0 0.0 16.290000149 0.0 0.0 0.0 29.1751946751" Properties=species:S:1:pos:R:3:initial_magmoms:R:1 pbc="T T T"
Si       1.35529543       1.36857178       1.33718670       0.00000000
Si      -1.32899523       1.35987292      -1.37388909       0.00000000
Si       1.38375406      -1.35443858      -1.33540701       0.00000000
Si      -1.34802195      -1.35312886       1.37628146       0.00000000
Si       2.71044425       0.00267156       2.67472350       0.00000000
Si      -2.69998607      -0.00931788      -2.69774273       0.00000000
Si       0.05797611      -2.69092883       2.70917940       0.00000000
Si       0.02660157      -2.71785620      -2.68423461       0.00000000
Si      -2.69374700       2.70881525      -0.02100614       0.00000000
Si      -0.02212182       2.71437014       2.69523366       0.00000000
