10
Lattice="16.290000149 0.0 0.0 0.0 16.290000149 0.0 0.0 0.0 29.1751946751" Properties=species:S:1:pos:R:3:initial_magmoms:R:1 pbc="T T T"
Si       0.43240176      -0.25471044       2.28442533       0.00000000
Si      -1.70452046       1.64880866       0.10050855       0.00000000
Si      -0.04662198      -2.29591262      -0.66606969       0.00000000
Si       1.86673628       0.90078814      -1.27799023       0.00000000
H       -0.91399933       0.16964406      -2.54813233       0.00000000
Si       2.15993999      -2.67748958       0.14170392       0.00000000
Si      -0.32179266       3.38450817      -0.81497989       0.00000000
Si       2.06959565      -1.98829226       2.36975810       0.00000000
Si       3.45631449       1.71787826       0.28466237       0.00000000
Si      -3.75468213       0.67676806      -0.65116117       0.00000000
