10
Lattice="16.290000149 0.0 0.0 0.0 16.290000149 0.0 0.0 0.0 29.1751946751" Properties=species:S:1:pos:R:3:initial_magmoms:R:1 pbc="T T T"
Si      -1.24906834      -1.38002365       1.42452848       0.00000000
Si      -1.44606331       1.42741126      -1.21520521       0.00000000
Si       0.96314626      -1.26915391      -1.75284570       0.00000000
Si       1.38868993       1.37376829       1.34569418       0.00000000
Si       2.35659287       0.16417062      -2.93096923       0.00000000
Si      -2.67344966      -0.00379557       2.72080572       0.00000000
Si      -2.06076647      -3.24174261       0.24691726       0.00000000
Si       2.73917982       0.00731421       2.71802824       0.00000000
Si       0.02401146       2.72591975       2.73236493       0.00000000
Si      -0.17780535       2.90677134      -2.54293914       0.00000000
