10
Lattice="16.290000149 0.0 0.0 0.0 16.290000149 0.0 0.0 0.0 29.1751946751" Properties=species:S:1:pos:R:3:initial_magmoms:R:1 pbc="T T T"
Si       1.34853834      -1.33511212       1.37528950       0.00000000
Si      -1.27161468       1.36133902       1.42269919       0.00000000
Si       1.34220153       1.36821340      -1.36291922       0.00000000
Si      -1.37951540      -1.36275625      -1.33246032       0.00000000
Si       2.66283184       0.13248657       2.65354231       0.00000000
Si       0.01630140      -2.69928560      -2.68187142       0.00000000
Si      -2.66363983       2.71704170       0.07305469       0.00000000
Si      -2.68468651       0.01650177      -2.70658281       0.00000000
Si      -0.06206164      -2.63024858       2.76175310       0.00000000
Si       2.71961878       0.02241504      -2.72096618       0.00000000
