10
Lattice="16.290000149 0.0 0.0 0.0 16.290000149 0.0 0.0 0.0 29.1751946751" Properties=species:S:1:pos:R:3:initial_magmoms:R:1 pbc="T T T"
Si      -1.50001579      -1.36192546       1.16163955       0.00000000
Si       1.39110085      -1.35454609      -1.31300046       0.00000000
Si       1.33858189       1.28778967       1.43151010       0.00000000
Si      -1.34319196       1.34570062      -1.38325433       0.00000000
H       -0.85455712      -2.20271753       2.24118010       0.00000000
Si      -0.00864999      -2.72497493      -2.62798484       0.00000000
Si       2.68969079       2.67248855       0.07684746       0.00000000
Si      -2.93153214      -0.13493007       2.44677770       0.00000000
Si       2.74436004      -2.66362679       0.11395831       0.00000000
Si       2.73136061      -0.00607617      -2.68496399       0.00000000
