10
Lattice="16.290000149 0.0 0.0 0.0 16.290000149 0.0 0.0 0.0 29.1751946751" Properties=species:S:1:pos:R:3:initial_magmoms:R:1 pbc="T T T"
Si       1.02830626      -1.12638021      -0.03845291       0.00000000
Si      -0.35241786       2.53600116       0.83531500       0.00000000
Si      -1.89361478       1.81528268      -0.76523618       0.00000000
Si      -0.21719457       1.07239352       2.75145426       0.00000000
Si      -1.80064775      -0.61178887       2.30842893       0.00000000
H        1.18622152       2.14608372      -1.80113064       0.00000000
Si       2.92789295      -0.21776798       1.01981893       0.00000000
Si      -1.26607510       0.73797610      -2.80709136       0.00000000
Si       1.29774286      -1.86729991      -2.24902823       0.00000000
Si       0.17953209      -3.06557603       0.96231462       0.00000000
