10
Lattice="16.290000149 0.0 0.0 0.0 16.290000149 0.0 0.0 0.0 29.1751946751" Properties=species:S:1:pos:R:3:initial_magmoms:R:1 pbc="T T T"
Si       1.36728487       1.35793441       1.32983455       0.00000000
Si       1.36987498      -1.35754345      -1.33359815       0.00000000
Si      -1.34399017       1.38199474      -1.34375112       0.00000000
Si      -1.37451763      -1.33545421       1.36329850       0.00000000
Si      -0.06910218       2.69347007       2.61185095       0.00000000
Si      -0.00276930      -2.70508484      -2.67848710       0.00000000
Si      -2.69094512       0.01839141      -2.69465016       0.00000000
Si      -0.01936881      -2.70135443       2.70083530       0.00000000
Si       2.72052776       0.00736308      -2.68901934       0.00000000
Si       2.72082098       2.70951572      -0.03153839       0.00000000
