10
Lattice="16.290000149 0.0 0.0 0.0 16.290000149 0.0 0.0 0.0 29.1751946751" Properties=species:S:1:pos:R:3:initial_magmoms:R:1 pbc="T T T"
Si       1.46763127      -1.19687518      -1.34179492       0.00000000
Si      -1.29813871      -1.49718133       1.24735190       0.00000000
Si       1.44119260       1.34822557       1.27980638       0.00000000
Si      -1.37819754       1.21634173      -1.47915174       0.00000000
Si       0.12610089      -2.55181223      -2.69108932       0.00000000
Si      -2.63994113      -0.10349037       2.60902242       0.00000000
Si       0.08342109       2.67105212       2.66824806       0.00000000
Si      -2.61680933       2.76414229      -0.16448829       0.00000000
Si       2.77887855      -0.04766454       2.65254014       0.00000000
Si      -0.01835883       2.64865628      -2.78987653       0.00000000
