10
Lattice="16.290000149 0.0 0.0 0.0 16.290000149 0.0 0.0 0.0 29.1751946751" Properties=species:S:1:pos:R:3:initial_magmoms:R:1 pbc="T T T"
H       -0.90740188      -0.06794559       1.21739335       0.00000000
Si      -0.88808194       1.41861466      -1.59474532       0.00000000
Si       0.33976053      -2.12055077      -0.93133056       0.00000000
Si       1.88364530       1.34465806       0.38382886       0.00000000
H        1.01431315       0.34655346       2.45684314       0.00000000
H       -2.18471708      -1.82379584       0.79219406       0.00000000
Si       0.28784430       2.87480873       1.47428094       0.00000000
Si      -0.32669595       0.38266839      -3.60316572       0.00000000
Si      -1.72160867      -2.81566137      -1.83401109       0.00000000
Si       1.56737494      -3.44021997       0.58376647       0.00000000
