10
Lattice="16.290000149 0.0 0.0 0.0 16.290000149 0.0 0.0 0.0 29.1751946751" Properties=species:S:1:pos:R:3:initial_magmoms:R:1 pbc="T T T"
Si       1.13674879      -0.96620878      -0.29186865       0.00000000
Si      -1.89146613       1.63799209      -0.25942583       0.00000000
H       -1.16152751      -1.79901875       1.90875794       0.00000000
Si      -1.53098471       1.40595733       2.10067237       0.00000000
Si      -0.18101774      -2.66763413      -1.42555836       0.00000000
Si       2.43444115      -0.81440227       1.72863028       0.00000000
Si       2.61540676       0.23656338      -1.67821555       0.00000000
Si      -0.25324597       2.69433344      -1.69221964       0.00000000
Si      -1.08247214      -0.73177939       2.98062541       0.00000000
Si      -2.96134447      -0.05587470      -1.64043367       0.00000000
