10
Lattice="16.290000149 0.0 0.0 0.0 16.290000149 0.0 0.0 0.0 29.1751946751" Properties=species:S:1:pos:R:3:initial_magmoms:R:1 pbc="T T T"
Si      -0.53626192      -0.94711690      -2.07496902       0.00000000
Si      -0.64807322      -1.71678683       1.53076411       0.00000000
Si       2.05016168       0.97204060       0.75166972       0.00000000
Si      -1.43965809       1.91985797       0.02882509       0.00000000
H        1.43739703       1.52800201      -2.36459118       0.00000000
H        2.84068281      -0.50712399      -1.89697116       0.00000000
Si       0.23517873       1.15891948      -3.24722834       0.00000000
Si      -1.96431338      -0.36010674       2.87353028       0.00000000
Si       1.02837142       2.20266866       2.59609635       0.00000000
Si      -3.10624239       1.12448242       1.47597310       0.00000000
