10
Lattice="16.290000149 0.0 0.0 0.0 16.290000149 0.0 0.0 0.0 29.1751946751" Properties=species:S:1:pos:R:3:initial_magmoms:R:1 pbc="T T T"
Si      -1.34788077      -1.35509995       1.35597552       0.00000000
Si      -1.36904148       1.35576784      -1.34089195       0.00000000
Si       1.33274301      -1.34752510      -1.38984792       0.00000000
Si       1.31568412       1.36656811       1.39229864       0.00000000
Si       0.02906391       2.69027723      -2.67629896       0.00000000
Si       2.68316122      -2.70894557      -0.03264704       0.00000000
Si      -2.69201755       0.01107720       2.70576590       0.00000000
Si       2.69150170       2.71394660       0.04087445       0.00000000
Si      -2.71984087      -2.70516629       0.00326762       0.00000000
Si       2.70479434       0.01723482       2.72207484       0.00000000
