10
Lattice="16.290000149 0.0 0.0 0.0 16.290000149 0.0 0.0 0.0 29.1751946751" Properties=species:S:1:pos:R:3:initial_magmoms:R:1 pbc="T T T"
Si       1.34433226       1.33066332      -1.33085276       0.00000000
Si      -1.33336909       1.41856416       1.28662609       0.00000000
Si       1.42223104      -1.34638643       1.27504353       0.00000000
Si      -1.36498798      -1.28085989      -1.40737055       0.00000000
Si       0.04142547      -2.69063724       2.60575334       0.00000000
Si      -2.69065190       0.04649329       2.61794857       0.00000000
Si      -0.03969873      -2.76623913      -2.61469845       0.00000000
Si       2.77195530       0.04181969       2.61132580       0.00000000
Si       0.04895145       2.76889115       2.61570208       0.00000000
Si      -2.72225450      -2.67332097      -0.10007092       0.00000000
