10
Lattice="16.290000149 0.0 0.0 0.0 16.290000149 0.0 0.0 0.0 29.1751946751" Properties=species:S:1:pos:R:3:initial_magmoms:R:1 pbc="T T T"
Si      -1.32986674       1.35759232       1.36612849       0.00000000
Si       1.37178091      -1.33846786       1.36548664       0.00000000
Si       1.40600620       1.40887324      -1.26072726       0.00000000
Si      -1.40587588      -1.43744590      -1.24216017       0.00000000
Si       0.10262700      -2.66926639      -2.52302999       0.00000000
Si       2.66318696       0.01695789      -2.63779062       0.00000000
Si      -2.65952171      -0.06607224      -2.65173928       0.00000000
Si       0.04742019       2.72064179       2.67405247       0.00000000
Si      -2.64883547       2.74711305       0.02459469       0.00000000
Si      -2.70125669       0.00078192       2.70439467       0.00000000
