10
Lattice="16.290000149 0.0 0.0 0.0 16.290000149 0.0 0.0 0.0 29.1751946751" Properties=species:S:1:pos:R:3:initial_magmoms:R:1 pbc="T T T"
Si       1.35777151      -1.32282655      -1.38844168       0.00000000
Si      -1.35055667      -1.41105319       1.30955779       0.00000000
Si       1.32669019       1.29645072       1.44662285       0.00000000
Si      -1.30835905       1.38360548      -1.38725133       0.00000000
Si       2.69384474       2.62997457       0.12376118       0.00000000
Si      -0.08342109      -2.67105212      -2.66824806       0.00000000
Si      -2.68441283       2.67732960       0.01232068       0.00000000
Si      -2.64100015      -0.06652544       2.75889393       0.00000000
Si       2.69545745      -2.71871666      -0.01570792       0.00000000
Si       0.01541034      -2.75688413       2.67863297       0.00000000
