10
Lattice="16.290000149 0.0 0.0 0.0 16.290000149 0.0 0.0 0.0 29.1751946751" Properties=species:S:1:pos:R:3:initial_magmoms:R:1 pbc="T T T"
Si      -1.36029809      -1.35029440       1.35308718       0.00000000
Si      -1.38911021       1.34933329      -1.32977620       0.00000000
Si       1.31826826      -1.36370107      -1.38976040       0.00000000
Si       1.36940257       1.36187659       1.35194935       0.00000000
Si      -0.01329264       2.69671178      -2.68120039       0.00000000
Si       0.01083285      -2.69304653       2.70877095       0.00000000
Si       2.68583006      -2.72108162      -0.06298925       0.00000000
Si       2.68858307      -0.02065572      -2.73141090       0.00000000
Si      -2.69896305       0.01317861       2.72525493       0.00000000
Si      -2.70479434      -0.01723482      -2.72207484       0.00000000
