10
Lattice="16.290000149 0.0 0.0 0.0 16.290000149 0.0 0.0 0.0 29.1751946751" Properties=species:S:1:pos:R:3:initial_magmoms:R:1 pbc="T T T"
Si       1.30196197       1.28953270      -1.50115129       0.00000000
Si       1.26376192      -1.64599049       1.14509722       0.00000000
Si      -0.99310357       1.76914289       1.27314715       0.00000000
Si      -1.29604870      -1.67547539      -1.17789013       0.00000000
H        0.23107365      -2.75356389       1.36067273       0.00000000
H       -3.05259942      -1.04337451       0.35701686       0.00000000
H       -2.48191184      -1.16339923      -1.97673614       0.00000000
H       -0.29020635      -1.20945106       3.17712035       0.00000000
H       -1.85029967       0.49205574      -3.08125066       0.00000000
Si      -2.51978609       2.75703366      -0.23801124       0.00000000
