10
Lattice="16.290000149 0.0 0.0 0.0 16.290000149 0.0 0.0 0.0 29.1751946751" Properties=species:S:1:pos:R:3:initial_magmoms:R:1 pbc="T T T"
Si      -1.42052059       1.37127592      -1.25327884       0.00000000
Si      -1.30158730      -1.23628069       1.50010098       0.00000000
Si       1.18314271      -1.45225351      -1.41097076       0.00000000
Si       1.85486087       0.93105496       1.10749039       0.00000000
Si       3.45677061      -0.84507634       1.01903120       0.00000000
Si      -0.04419477       2.69221574      -2.61561455       0.00000000
Si       2.57893508      -2.73422765      -0.05088154       0.00000000
Si       2.56645694      -0.11621286      -2.75110416       0.00000000
Si       0.14667516      -2.58677057       2.78363450       0.00000000
Si      -2.77682601      -0.01065366      -2.60350685       0.00000000
