10
Lattice="16.290000149 0.0 0.0 0.0 16.290000149 0.0 0.0 0.0 29.1751946751" Properties=species:S:1:pos:R:3:initial_magmoms:R:1 pbc="T T T"
Si       0.85142944      -1.87370840      -1.11694315       0.00000000
Si       1.49486815       1.25393905       1.37170095       0.00000000
Si      -1.39136149       1.31279482      -1.43010969       0.00000000
Si      -1.32654358      -1.35633799       1.48484236       0.00000000
H        1.38523645      -1.61567479      -2.50267737       0.00000000
H        2.66255165       0.14017545      -2.07747809       0.00000000
Si      -0.00079821       2.54733818       2.70597013       0.00000000
Si      -2.81253369       2.48919347       0.03676075       0.00000000
H       -0.20567754      -0.77287906      -3.68447699       0.00000000
Si       2.54524736      -2.80235244       0.18993052       0.00000000
