10
Lattice="16.290000149 0.0 0.0 0.0 16.290000149 0.0 0.0 0.0 29.1751946751" Properties=species:S:1:pos:R:3:initial_magmoms:R:1 pbc="T T T"
Si      -1.67668085       1.68032981       0.25137348       0.00000000
Si       0.36048141      -0.23203476       2.36009820       0.00000000
Si       1.63822015       1.05634135      -1.43279381       0.00000000
Si      -1.06987834      -1.69386680      -1.38100784       0.00000000
H        1.89146613      -1.63799209       0.25942583       0.00000000
H        0.54162621       2.46555668       1.37190518       0.00000000
H       -1.08035281       0.05807385       2.80259838       0.00000000
Si      -2.41284224      -0.27919431      -2.75235869       0.00000000
Si       0.34621137       2.47164914      -2.78914861       0.00000000
Si      -3.53866044       0.83828341      -1.00044660       0.00000000
