10
Lattice="16.290000149 0.0 0.0 0.0 16.290000149 0.0 0.0 0.0 29.1751946751" Properties=species:S:1:pos:R:3:initial_magmoms:R:1 pbc="T T T"
Si       1.21479581      -1.28679598      -1.60705725       0.00000000
Si      -1.29015009       1.34700382      -1.50021769       0.00000000
Si      -1.43801442      -1.42172442       1.34821492       0.00000000
Si       1.31776653       1.70142536       1.13368971       0.00000000
H        2.83449424       0.22784823       0.50020871       0.00000000
H        0.18101774       2.66763413       1.42555836       0.00000000
H       -0.98050977       0.86861539       3.33431630       0.00000000
Si      -2.62917181      -2.57108412      -0.34254596       0.00000000
Si       3.44991415      -1.07911314       0.93331448       0.00000000
Si       2.59455882      -2.74095543      -0.45422861       0.00000000
