10
Lattice="16.290000149 0.0 0.0 0.0 16.290000149 0.0 0.0 0.0 29.1751946751" Properties=species:S:1:pos:R:3:initial_magmoms:R:1 pbc="T T T"
H        1.31227354      -0.45910107       0.60620219       0.00000000
Si      -1.25841880       0.24780348       1.93866251       0.00000000
Si       0.27104931       2.02939193      -1.19673731       0.00000000
Si      -0.97148674      -1.99651871      -0.87831924       0.00000000
H        1.88296112      -0.57912580      -1.72755080       0.00000000
Si       3.06882426      -1.09120195      -0.92870480       0.00000000
H       -0.88633891      -2.81924517       1.69627499       0.00000000
Si      -1.92487529       2.75102265      -0.73317264       0.00000000
Si      -3.31978800      -0.44730711       1.03598199       0.00000000
H        1.07673643       0.16493625      -3.38341815       0.00000000
