10
Lattice="16.290000149 0.0 0.0 0.0 16.290000149 0.0 0.0 0.0 29.1751946751" Properties=species:S:1:pos:R:3:initial_magmoms:R:1 pbc="T T T"
Si      -1.19115739      -1.14935969      -1.69076088       0.00000000
Si       0.56902600      -1.72304381       1.53820379       0.00000000
Si      -1.99479197       0.88223220       0.98014067       0.00000000
Si       1.43801442       1.42172442      -1.34821492       0.00000000
H        0.45750465       2.29033981       1.98610138       0.00000000
Si      -2.73167012       2.20858030      -0.81002010       0.00000000
Si      -2.48166749      -2.58649527      -0.40886118       0.00000000
Si      -2.62619237       0.47762118      -2.61713166       0.00000000
Si      -3.51619653      -0.96192288       0.90268052       0.00000000
H       -0.72871687       0.14425610       3.78723202       0.00000000
