10
Lattice="16.290000149 0.0 0.0 0.0 16.290000149 0.0 0.0 0.0 29.1751946751" Properties=species:S:1:pos:R:3:initial_magmoms:R:1 pbc="T T T"
Si       1.18586314      -0.51207615       0.79884601       0.00000000
H       -0.80622469       0.74406205      -1.65586735       0.00000000
H        0.63161218       1.65545498      -1.10451452       0.00000000
H       -0.57068758       0.12002472       2.33375300       0.00000000
Si      -1.88296112       0.57912580       1.72755080       0.00000000
Si      -1.65130103      -0.19130976      -2.46358261       0.00000000
Si       2.51757065      -1.58407219      -0.82364492       0.00000000
Si      -1.61191180       2.60851772       0.53081349       0.00000000
Si       0.49467843      -2.37539153       2.21687717       0.00000000
Si      -2.85444786      -1.41739291       0.84923157       0.00000000
