10
Lattice="16.290000149 0.0 0.0 0.0 16.290000149 0.0 0.0 0.0 29.1751946751" Properties=species:S:1:pos:R:3:initial_magmoms:R:1 pbc="T T T"
Si       1.36122499      -1.35027811      -1.32572085       0.00000000
Si      -1.17822802      -1.53653797       1.30687367       0.00000000
Si       1.53158581       1.31331610       1.20123029       0.00000000
Si      -1.03411364       1.54525312      -1.47947412       0.00000000
H        2.71726976      -0.77235778      -1.05313700       0.00000000
Si       0.11041362       2.48971475       2.66810073       0.00000000
Si      -1.39885163      -3.38750553      -0.12667870       0.00000000
Si       2.33209271       2.80269453      -0.51292910       0.00000000
Si       0.91188163      -3.55967454      -0.71604680       0.00000000
Si      -2.66545127      -0.34727022       2.63227359       0.00000000
