10
Lattice="16.290000149 0.0 0.0 0.0 16.290000149 0.0 0.0 0.0 29.1751946751" Properties=species:S:1:pos:R:3:initial_magmoms:R:1 pbc="T T T"
Si       1.39766572       1.25581240       1.38937499       0.00000000
Si      -1.55944986       1.27299835      -1.21161695       0.00000000
Si       1.25524225      -1.34815715      -1.48093317       0.00000000
Si      -1.40569181      -1.38563230       1.32105252       0.00000000
Si      -2.83949364      -0.65135566      -1.77720728       0.00000000
Si      -0.01650177       2.64601730       2.67312149       0.00000000
Si       2.61262280      -2.73348890      -0.08061135       0.00000000
Si       2.59651199      -0.13926321       2.83206503       0.00000000
Si      -2.79756318      -2.67614761      -0.12443250       0.00000000
Si       3.27570726       2.05830668       0.19320543       0.00000000
