10
Lattice="16.290000149 0.0 0.0 0.0 16.290000149 0.0 0.0 0.0 29.1751946751" Properties=species:S:1:pos:R:3:initial_magmoms:R:1 pbc="T T T"
Si       1.36023130       1.36423864      -1.34086277       0.00000000
Si      -1.35252613       1.38681658       1.33534866       0.00000000
Si       1.38867364      -1.34151409       1.34707709       0.00000000
Si      -1.36042678      -1.36293544      -1.35597552       0.00000000
Si      -2.70466130       0.03157002       2.67145588       0.00000000
Si       0.05180220      -2.78930415       2.60330262       0.00000000
Si      -0.00206883       2.71605290      -2.69228696       0.00000000
Si       2.71164971       0.00317655      -2.69958076       0.00000000
Si       2.69330717       2.71907633       0.04157465       0.00000000
Si      -2.73259866      -0.01640403      -2.69785943       0.00000000
