10
Lattice="16.290000149 0.0 0.0 0.0 16.290000149 0.0 0.0 0.0 29.1751946751" Properties=species:S:1:pos:R:3:initial_magmoms:R:1 pbc="T T T"
H       -1.12982554       0.06147846       1.00534803       0.00000000
Si       0.22387347      -2.13477194      -0.91233751       0.00000000
Si       2.06136920       0.69511060       0.90268052       0.00000000
Si      -0.22693599       1.51107670      -1.83932097       0.00000000
H       -0.46310841       0.99186553       2.62620515       0.00000000
H       -2.05402241       1.83466127       1.44440554       0.00000000
Si       2.34830126      -1.54921159      -1.91430122       0.00000000
H        2.43344909      -2.37193805       0.66029301       0.00000000
Si       3.31978800       0.44730711      -1.03598199       0.00000000
Si       1.72160867       2.81566137       1.83401109       0.00000000
