10
Lattice="16.290000149 0.0 0.0 0.0 16.290000149 0.0 0.0 0.0 29.1751946751" Properties=species:S:1:pos:R:3:initial_magmoms:R:1 pbc="T T T"
Si      -2.05633559       0.60980149      -0.89054364       0.00000000
Si       1.03452904      -1.62457239      -1.31154170       0.00000000
Si      -0.52509186      -1.25286717       1.93110614       0.00000000
Si       1.52140456       1.84415508       0.07746014       0.00000000
Si       2.32503914      -0.18743681      -2.59344141       0.00000000
Si      -3.29681910      -1.17891057      -0.04746804       0.00000000
Si       2.56121156      -2.61246316       0.19961668       0.00000000
Si       0.78452641       3.17050318      -1.71270063       0.00000000
Si      -2.12089286       0.27728350       3.02155821       0.00000000
Si       0.89386489       2.92146166       2.11931532       0.00000000
