10
Lattice="16.290000149 0.0 0.0 0.0 16.290000149 0.0 0.0 0.0 29.1751946751" Properties=species:S:1:pos:R:3:initial_magmoms:R:1 pbc="T T T"
Si       1.33779997       1.29987685       1.42671954       0.00000000
Si       1.33465600      -1.43136973      -1.31862836       0.00000000
Si      -1.34234488      -1.41558472       1.35745762       0.00000000
Si      -1.42864930       1.36796905      -1.33023133       0.00000000
H        0.50907879       1.65706769      -3.21315755       0.00000000
Si       2.68047065       2.62089812       0.02511401       0.00000000
Si      -2.76576510       2.52982073       0.22164979       0.00000000
Si      -0.06024042      -2.74924704      -2.68847085       0.00000000
Si      -2.73588924      -0.07107327      -2.70731802       0.00000000
Si       0.00273672       2.64275930       2.81936828       0.00000000
