10
Lattice="16.290000149 0.0 0.0 0.0 16.290000149 0.0 0.0 0.0 29.1751946751" Properties=species:S:1:pos:R:3:initial_magmoms:R:1 pbc="T T T"
Si       1.34265439      -1.34382727      -1.37584383       0.00000000
Si      -1.36676359       1.33827238      -1.36198561       0.00000000
Si      -1.35159760      -1.39105198       1.32569167       0.00000000
Si       1.37196010       1.35006634       1.35270790       0.00000000
Si      -2.72960129      -0.04202820       2.64566500       0.00000000
Si      -2.70008381      -0.06276537      -2.70739972       0.00000000
Si       2.69337233      -2.71774217      -0.02654943       0.00000000
Si      -0.01119123       2.70928766      -2.70343189       0.00000000
Si      -2.72127710       2.69482214      -0.00055433       0.00000000
Si       0.02782332       2.71624349       2.70249828       0.00000000
