10
Lattice="16.290000149 0.0 0.0 0.0 16.290000149 0.0 0.0 0.0 29.1751946751" Properties=species:S:1:pos:R:3:initial_magmoms:R:1 pbc="T T T"
Si       1.33380892       1.36373528      -1.37032972       0.00000000
Si      -1.36236529      -1.34237583      -1.37724424       0.00000000
Si      -1.42428358       1.36288820       1.29832534       0.00000000
Si       1.40164048      -1.34056764       1.35997252       0.00000000
Si       0.05851368      -2.71961390       2.67279793       0.00000000
Si       2.70501968      -2.68742486      -0.07136253       0.00000000
Si       2.69498504       2.70909381      -0.00245072       0.00000000
Si      -0.13014081       2.79896574       2.61155920       0.00000000
Si      -2.72543105      -2.69247476      -0.02748303       0.00000000
Si       2.63230112       0.09208737       2.78672707       0.00000000
