10
Lattice="16.290000149 0.0 0.0 0.0 16.290000149 0.0 0.0 0.0 29.1751946751" Properties=species:S:1:pos:R:3:initial_magmoms:R:1 pbc="T T T"
H       -1.16867719      -0.57044323      -1.03895786       0.00000000
Si      -1.54378702       1.26180712       1.20190132       0.00000000
Si       1.14192901      -1.48458916       1.39755718       0.00000000
Si       1.66658430       0.79537555      -1.44714801       0.00000000
Si      -2.47629179      -1.09742473      -1.97002585       0.00000000
Si       3.10624239      -1.12448242      -1.47597310       0.00000000
Si      -0.14889060       2.57968442       2.57174381       0.00000000
Si       2.64835329      -0.11124441       2.56915306       0.00000000
Si       2.77809825       2.48958443      -0.19156433       0.00000000
Si       2.45816917      -2.84126925       0.05479102       0.00000000
