10
Lattice="16.290000149 0.0 0.0 0.0 16.290000149 0.0 0.0 0.0 29.1751946751" Properties=species:S:1:pos:R:3:initial_magmoms:R:1 pbc="T T T"
Si       0.85341682      -1.84173113       1.12169871       0.00000000
Si      -1.72274897       0.75864160       1.37686496       0.00000000
Si      -1.06574068      -0.09027918      -2.10606978       0.00000000
Si       1.79675444       1.59620824       0.12437385       0.00000000
H        2.33056145       1.85424185      -1.26136037       0.00000000
H       -1.14207562      -3.02146923      -1.07907375       0.00000000
H        1.66384433       0.92385478      -2.88221748       0.00000000
Si       2.56722257      -2.29319219      -0.39970017       0.00000000
Si      -0.38121858       2.11357865       2.72615937       0.00000000
Si      -0.61639732       2.11911725      -2.71574382       0.00000000
