10
Lattice="16.290000149 0.0 0.0 0.0 16.290000149 0.0 0.0 0.0 29.1751946751" Properties=species:S:1:pos:R:3:initial_magmoms:R:1 pbc="T T T"
Si       1.05715585      -1.46684935      -1.47801536       0.00000000
Si      -1.31512429      -1.35799957       1.38348773       0.00000000
Si      -1.44826246       1.35048988      -1.28353351       0.00000000
Si       1.81390781       0.75482974       1.38590927       0.00000000
Si       2.15845760      -1.19609326       2.75513033       0.00000000
Si       0.28610127      -2.65722482       2.59443336       0.00000000
Si       2.43225992      -0.14745708      -2.83451604       0.00000000
Si      -2.69878061       0.12448818       2.59384986       0.00000000
Si       2.28118646      -2.99985240      -0.23687341       0.00000000
Si      -0.14667516       2.58677057      -2.78363450       0.00000000
