10
Lattice="16.290000149 0.0 0.0 0.0 16.290000149 0.0 0.0 0.0 29.1751946751" Properties=species:S:1:pos:R:3:initial_magmoms:R:1 pbc="T T T"
Si       2.20656197      -0.38157696       0.80777362       0.00000000
Si       0.04662198       2.29591262       0.66606969       0.00000000
Si       0.14698467      -0.41076864      -2.36103180       0.00000000
Si      -1.54144126      -1.36526165       1.27635642       0.00000000
H       -2.15650280      -0.19564290      -1.46412797       0.00000000
H       -0.86737735       2.46555668      -1.88206263       0.00000000
Si       0.47902374       2.04120218       2.95049502       0.00000000
Si      -0.71252461       1.66892681      -3.15675606       0.00000000
Si       2.11621763       0.30762036       3.03582780       0.00000000
Si       2.44807751      -0.35189658      -2.80904609       0.00000000
