10
Lattice="16.290000149 0.0 0.0 0.0 16.290000149 0.0 0.0 0.0 29.1751946751" Properties=species:S:1:pos:R:3:initial_magmoms:R:1 pbc="T T T"
Si       1.37728693       1.36304947       1.30792398       0.00000000
Si      -1.31896873       1.38952072      -1.34153380       0.00000000
Si       1.32986674      -1.35759232      -1.36612849       0.00000000
Si      -1.37138995      -1.35681040       1.33826618       0.00000000
Si      -2.62356968       0.02604771      -2.69118706       0.00000000
Si      -0.00579924       2.68051952       2.66585424       0.00000000
Si       2.73587295       0.05128092      -2.62685576       0.00000000
Si       2.70780527      -0.00079821       2.68525574       0.00000000
Si       2.70164765      -2.69606018      -0.00064185       0.00000000
Si      -0.00988803      -2.72007164       2.67775772       0.00000000
