10
Lattice="16.290000149 0.0 0.0 0.0 16.290000149 0.0 0.0 0.0 29.1751946751" Properties=species:S:1:pos:R:3:initial_magmoms:R:1 pbc="T T T"
Si       1.81895771      -0.88681132       1.15014452       0.00000000
Si      -0.87439834       1.78368986       1.28102445       0.00000000
Si       1.12068685       1.44106228      -1.55028232       0.00000000
Si      -1.01947708      -2.15277239      -0.39383595       0.00000000
H       -1.92726992      -0.58575583      -1.88912303       0.00000000
Si       2.60708420       2.45522882      -0.08061106       0.00000000
Si      -0.04904919      -2.55702666      -2.54556491       0.00000000
Si      -1.94807225       0.61491493       2.98625623       0.00000000
Si       0.99795799       3.24482142       1.44172142       0.00000000
H        3.19766187      -0.62672518      -1.75587992       0.00000000
