10
Lattice="16.290000149 0.0 0.0 0.0 16.290000149 0.0 0.0 0.0 29.1751946751" Properties=species:S:1:pos:R:3:initial_magmoms:R:1 pbc="T T T"
Si      -1.34372953      -1.32792823      -1.40694459       0.00000000
Si      -1.38539935       1.35063649       1.35486687       0.00000000
Si       1.35573526       1.34635222      -1.39384493       0.00000000
Si       1.39202515      -1.35570268       1.34964451       0.00000000
Si      -2.68398929      -2.67639815      -0.03498106       0.00000000
Si       2.66363983      -2.71704170      -0.07305469       0.00000000
Si      -2.71751411       2.66481596      -0.08822579       0.00000000
Si       0.02254536       2.71678106       2.67273958       0.00000000
Si       2.75032380       0.05668920       2.66071940       0.00000000
Si      -2.73650825      -0.03406239       2.70952950       0.00000000
