10
Lattice="16.290000149 0.0 0.0 0.0 16.290000149 0.0 0.0 0.0 29.1751946751" Properties=species:S:1:pos:R:3:initial_magmoms:R:1 pbc="T T T"
Si       1.31839858       1.35420922       1.32372818       0.00000000
Si      -1.39147552       1.35525503      -1.28271369       0.00000000
Si       1.24175413      -1.30387246      -1.49702884       0.00000000
Si      -1.47167119      -1.42410895       1.21038255       0.00000000
Si      -2.44154522      -0.49926049      -2.22657792       0.00000000
Si      -0.69261823      -2.05368488      -2.63962253       0.00000000
H        1.14051178       0.41411819      -3.44230245       0.00000000
Si       2.63946856      -0.08013507       2.59763388       0.00000000
Si       2.59605587       2.66371997      -0.14893937       0.00000000
Si      -0.12232161       2.68605356       2.60580294       0.00000000
