10
Lattice="16.290000149 0.0 0.0 0.0 16.290000149 0.0 0.0 0.0 29.1751946751" Properties=species:S:1:pos:R:3:initial_magmoms:R:1 pbc="T T T"
Si      -1.31839858      -1.35420922      -1.32372818       0.00000000
Si       1.32106998      -1.43434429       1.27390570       0.00000000
Si      -1.44072019       1.33184435       1.28207475       0.00000000
Si       1.27765729       1.30951076      -1.47266755       0.00000000
Si       2.63618140      -0.05018297       2.63615389       0.00000000
Si      -0.06913476       2.68064007       2.61771517       0.00000000
Si      -2.70987410       0.00104582      -2.60644187       0.00000000
Si       2.66293773       2.68959957      -0.15988007       0.00000000
Si      -0.07703541      -2.76885368       2.60931271       0.00000000
Si       2.61151345      -2.77887203      -0.17543045       0.00000000
