10
Lattice="16.290000149 0.0 0.0 0.0 16.290000149 0.0 0.0 0.0 29.1751946751" Properties=species:S:1:pos:R:3:initial_magmoms:R:1 pbc="T T T"
Si       1.29200878      -1.41530779       1.35635480       0.00000000
Si      -1.33170751       1.07199604       1.62249093       0.00000000
Si       1.32002758       1.32447475      -1.44210070       0.00000000
Si      -1.40794471      -1.36614457      -1.31787272       0.00000000
H       -2.51757065       1.58407219       0.82364492       0.00000000
Si       2.71396127       0.02419065       2.51991991       0.00000000
Si      -2.02289222      -0.79131934       3.04052209       0.00000000
Si      -0.34621137      -2.47164914       2.78914861       0.00000000
H       -1.88595848       3.23952717      -0.28086960       0.00000000
Si       2.60801925       2.73487926      -0.12387788       0.00000000
