10
Lattice="16.290000149 0.0 0.0 0.0 16.290000149 0.0 0.0 0.0 29.1751946751" Properties=species:S:1:pos:R:3:initial_magmoms:R:1 pbc="T T T"
Si      -1.37031481      -1.34304535       1.34165050       0.00000000
Si      -1.37929060       1.34765542      -1.33511526       0.00000000
Si       1.34602642      -1.36536265      -1.35889304       0.00000000
Si       1.36407574       1.36386397       1.35110327       0.00000000
Si      -0.01163106       2.70884783      -2.65818116       0.00000000
Si      -0.00275301      -2.70042590       2.66842166       0.00000000
Si       2.70296714      -0.00071676      -2.69144088       0.00000000
Si      -2.71021619      -2.70552467      -0.02331098       0.00000000
Si      -2.70187571       2.71736750       0.05021051       0.00000000
Si      -2.68858307       0.02065572       2.73141090       0.00000000
