10
Lattice="16.290000149 0.0 0.0 0.0 16.290000149 0.0 0.0 0.0 29.1751946751" Properties=species:S:1:pos:R:3:initial_magmoms:R:1 pbc="T T T"
Si       1.29813871       1.49718133      -1.24735190       0.00000000
Si       1.38683776      -1.33434649       1.37042016       0.00000000
Si      -1.34180243       1.39369096       1.36167052       0.00000000
Si      -1.22597547      -1.48159180      -1.39795279       0.00000000
Si      -2.68761708      -2.65857689       0.01792816       0.00000000
Si       2.76576998       0.30030615      -2.58914682       0.00000000
Si       0.03630389      -2.65580759       2.75726596       0.00000000
Si      -0.08005883       2.71352306      -2.72650363       0.00000000
Si      -2.68447311       0.07266969       2.76327605       0.00000000
Si       2.77262807      -2.70019784       0.01918853       0.00000000
