10
Lattice="16.290000149 0.0 0.0 0.0 16.290000149 0.0 0.0 0.0 29.1751946751" Properties=species:S:1:pos:R:3:initial_magmoms:R:1 pbc="T T T"
Si      -1.25524225       1.34815715       1.48093317       0.00000000
Si       1.35738055      -1.38533175       1.40032182       0.00000000
Si      -1.45435492      -1.44347646      -1.26888757       0.00000000
Si       1.54144126       1.36526165      -1.27635642       0.00000000
H       -0.61506154       1.16961875      -2.74048439       0.00000000
Si      -0.03318273      -2.61987511      -2.73575800       0.00000000
Si      -2.81469211       2.62115551       0.26931622       0.00000000
Si      -2.66093406      -0.03747515       2.80198570       0.00000000
Si       0.14242347       2.60396956       2.87030817       0.00000000
Si       3.74800323       0.98368469      -0.46858280       0.00000000
