10
Lattice="16.290000149 0.0 0.0 0.0 16.290000149 0.0 0.0 0.0 29.1751946751" Properties=species:S:1:pos:R:3:initial_magmoms:R:1 pbc="T T T"
Si      -1.74796589      -0.32306654       1.49079410       0.00000000
Si       0.11544723      -2.30565404      -0.23381001       0.00000000
Si      -0.98394859       0.85957281      -1.98706416       0.00000000
Si       1.83363500       1.18630297       1.00785710       0.00000000
H       -0.41858784       2.66633093       1.50021769       0.00000000
Si      -2.50391963       2.17769609      -0.79047272       0.00000000
Si       1.71444107      -2.23194179      -2.02665490       0.00000000
Si      -1.06404652       3.50712300       0.42067713       0.00000000
Si       0.40412232      -3.18972864       2.00821618       0.00000000
Si      -3.66529890       0.73602945       0.71053269       0.00000000
