10
Lattice="16.2900001489832 0.0 0.0 0.0 16.2900001489832 0.0 0.0 0.0 28.95393846505263" Properties=species:S:1:pos:R:3:initial_magmoms:R:1 pbc="T T T"
Si       0.53051481      -2.17864091       0.75957762       0.00000000
Si      -2.29071774       0.09905949       0.61952742       0.00000000
Si       1.02946774       1.75288547       1.24296362       0.00000000
Si       0.62977629      -0.49855545      -2.36185962       0.00000000
H       -0.85407005      -2.53825895      -1.83353711       0.00000000
Si      -1.24991705      -3.01742931      -0.43807309       0.00000000
Si      -2.91695422       1.64696788      -1.00892894       0.00000000
H       -0.74274419       1.50638518      -3.11781800       0.00000000
Si      -1.18379594       2.59553459      -2.16902639       0.00000000
Si       2.36511091       0.47281725       2.67441412       0.00000000
