10
Lattice="16.2900001489832 0.0 0.0 0.0 16.2900001489832 0.0 0.0 0.0 28.95393846505263" Properties=species:S:1:pos:R:3:initial_magmoms:R:1 pbc="T T T"
Si       0.34327917       2.12450924      -0.98750303       0.00000000
Si      -0.54411858      -1.85090240      -1.41683202       0.00000000
Si      -2.17655579       0.80909173       0.62456541       0.00000000
Si       1.93474703      -0.44167077       1.45415365       0.00000000
Si      -1.26473932       2.99731116       0.57618338       0.00000000
Si       1.63945819      -2.63046035      -1.34632918       0.00000000
H       -0.47017827      -2.57114846       2.16358305       0.00000000
Si      -0.02352276       1.63670518      -3.23314154       0.00000000
Si       2.88396534      -2.45169389       0.59847791       0.00000000
Si      -1.96372694      -2.69731451       1.97083668       0.00000000
