10
Lattice="16.2900001489832 0.0 0.0 0.0 16.2900001489832 0.0 0.0 0.0 28.95393846505263" Properties=species:S:1:pos:R:3:initial_magmoms:R:1 pbc="T T T"
Si       1.38577402      -1.36254448      -1.28493525       0.00000000
Si      -1.30838023      -1.41869611       1.31625473       0.00000000
Si       1.41825628       1.31768182       1.31961339       0.00000000
Si      -1.34576578       1.40526175      -1.34278233       0.00000000
Si       2.53754219       0.20004738      -2.56420943       0.00000000
Si       0.00223173      -2.64621278      -2.66432318       0.00000000
Si      -2.67719636      -0.06638175       2.64770159       0.00000000
Si       0.07297920       2.64337832       2.69967391       0.00000000
Si      -2.70414002       2.70088202       0.01987398       0.00000000
Si       0.08487090      -2.78270670       2.63287717       0.00000000
