10
Lattice="16.2900001489832 0.0 0.0 0.0 16.2900001489832 0.0 0.0 0.0 28.95393846505263" Properties=species:S:1:pos:R:3:initial_magmoms:R:1 pbc="T T T"
Si       1.36298431       1.33753933      -1.30830108       0.00000000
Si      -1.33175638       1.40100517       1.29447268       0.00000000
Si       1.40895469      -1.34343631       1.28410717       0.00000000
Si      -1.36816453      -1.28593261      -1.39569275       0.00000000
Si      -2.68133402       0.01635516       2.61123989       0.00000000
Si       0.03940551      -2.71699446       2.58633951       0.00000000
Si      -0.00979029      -2.58155289      -2.75834906       0.00000000
Si       0.06017526       2.73911466       2.60828659       0.00000000
Si       2.77987224       0.01747917       2.60646249       0.00000000
Si       0.08952984       2.71425611      -2.69333010       0.00000000
