10
Lattice="16.2900001489832 0.0 0.0 0.0 16.2900001489832 0.0 0.0 0.0 28.95393846505263" Properties=species:S:1:pos:R:3:initial_magmoms:R:1 pbc="T T T"
Si      -1.33944526      -1.36788272       1.27605798       0.00000000
Si       1.32489829      -1.41989180      -1.27825848       0.00000000
Si      -1.43915635       1.34371324      -1.25162085       0.00000000
Si       1.33219621       1.23610150       1.47592701       0.00000000
Si       2.64075563       2.60467328       0.08813579       0.00000000
Si       2.66240504      -0.05181849      -2.61300608       0.00000000
Si      -0.07097553       2.70042590      -2.57716111       0.00000000
Si      -2.67701717      -0.06108750       2.66732367       0.00000000
Si      -0.05616792      -2.75429694      -2.62487720       0.00000000
Si      -2.78984172      -0.02054169      -2.59456243       0.00000000
