10
Lattice="16.2900001489832 0.0 0.0 0.0 16.2900001489832 0.0 0.0 0.0 28.95393846505263" Properties=species:S:1:pos:R:3:initial_magmoms:R:1 pbc="T T T"
Si      -1.39193164      -1.33810948      -1.31381391       0.00000000
Si       1.35467641      -1.35814618       1.33292351       0.00000000
Si      -1.38671884       1.32349735       1.33674543       0.00000000
Si       1.36612828       1.36246303      -1.32858042       0.00000000
Si      -0.00162900       2.66615174       2.65794260       0.00000000
Si      -0.06017526      -2.73911466      -2.60828659       0.00000000
Si      -0.01350441      -2.71485884       2.65846377       0.00000000
Si      -2.69498504       0.04307076      -2.68171378       0.00000000
Si       2.71868699      -0.00009774      -2.66373338       0.00000000
Si       0.02021589       2.73512361      -2.65863749       0.00000000
