10
Lattice="16.2900001489832 0.0 0.0 0.0 16.2900001489832 0.0 0.0 0.0 28.95393846505263" Properties=species:S:1:pos:R:3:initial_magmoms:R:1 pbc="T T T"
Si       1.43765767       1.33744159       1.27498668       0.00000000
Si      -1.30873861       1.38160378      -1.37041886       0.00000000
Si       1.39408192      -1.34491870      -1.32771180       0.00000000
Si      -1.42390891      -1.28083384       1.38133450       0.00000000
Si       0.05061303      -2.76684024       2.50373392       0.00000000
Si       0.09785403       2.68346801       2.60730216       0.00000000
Si       0.03360627      -2.69347007      -2.66714995       0.00000000
Si      -2.67072923       0.02406033      -2.69746472       0.00000000
Si      -2.70055622      -2.69193881       0.01288450       0.00000000
Si       2.71391402       0.02143764      -2.71946972       0.00000000
