10
Lattice="16.2900001489832 0.0 0.0 0.0 16.2900001489832 0.0 0.0 0.0 28.95393846505263" Properties=species:S:1:pos:R:3:initial_magmoms:R:1 pbc="T T T"
Si      -1.33980364       1.34602642       1.33231548       0.00000000
Si       1.32162400       1.40219434      -1.31352437       0.00000000
Si      -1.43765767      -1.33744159      -1.27498668       0.00000000
Si       1.37637469      -1.30331404       1.38095810       0.00000000
Si      -0.07222986      -2.71691138       2.55446122       0.00000000
Si      -0.04357575      -2.68236029      -2.60269848       0.00000000
Si       2.64212399       0.03600090      -2.67525705       0.00000000
Si       2.65367360       2.73567747       0.08489295       0.00000000
Si      -2.74639629       0.04416219      -2.64540554       0.00000000
Si      -0.04978224       2.78635566      -2.62053411       0.00000000
