10
Lattice="16.2900001489832 0.0 0.0 0.0 16.2900001489832 0.0 0.0 0.0 28.95393846505263" Properties=species:S:1:pos:R:3:initial_magmoms:R:1 pbc="T T T"
Si       1.25962426       1.48155922      -1.28558585       0.00000000
Si      -1.18858357      -1.39310452      -1.45587352       0.00000000
Si       1.33125139      -1.36523233       1.36689227       0.00000000
Si      -1.38991168       1.34535853       1.33654854       0.00000000
Si       2.49725702      -0.00017919      -2.60137818       0.00000000
Si      -2.59716359      -2.61055397       0.05216631       0.00000000
Si      -2.55766034       0.01707192      -2.76838450       0.00000000
Si       2.71697654      -0.00317655       2.67182891       0.00000000
Si      -0.05098770       2.70907589       2.69499206       0.00000000
Si       2.64316655       2.76522753       0.09380207       0.00000000
