10
Lattice="16.2900001489832 0.0 0.0 0.0 16.2900001489832 0.0 0.0 0.0 28.95393846505263" Properties=species:S:1:pos:R:3:initial_magmoms:R:1 pbc="T T T"
Si      -1.38383551      -1.34897491      -1.30301409       0.00000000
Si      -1.39885489       1.34082991       1.30819685       0.00000000
Si       1.33747417      -1.37710774       1.34473672       0.00000000
Si       1.32815629       1.36723600      -1.37195342       0.00000000
Si      -2.71055828       0.06186942      -2.60597028       0.00000000
Si      -0.01229895      -2.67900455      -2.63961475       0.00000000
Si      -0.01936881       2.69869916       2.61957863       0.00000000
Si       2.69946479      -0.01956429       2.67178258       0.00000000
Si      -2.76143196      -0.05214429       2.61456960       0.00000000
Si       2.69741225       2.71179632      -0.03147293       0.00000000
