10
Lattice="16.2900001489832 0.0 0.0 0.0 16.2900001489832 0.0 0.0 0.0 28.95393846505263" Properties=species:S:1:pos:R:3:initial_magmoms:R:1 pbc="T T T"
H       -1.00499527      -1.00897003       0.48023002       0.00000000
Si      -1.26662896       1.51923799      -1.21626809       0.00000000
Si       0.97727132       0.77973715       1.97216856       0.00000000
Si       1.46413055      -1.33657822      -1.26071239       0.00000000
H       -2.65072511      -0.62253865       1.86576284       0.00000000
H        1.83415628      -2.25122915       1.62052298       0.00000000
H       -0.99991279      -2.31800186       2.53234041       0.00000000
Si      -2.60881094       0.07556931      -2.51618411       0.00000000
Si       2.05346855      -2.99789760       0.28867077       0.00000000
Si       0.25115205       2.74867689      -2.54397990       0.00000000
