10
Lattice="16.2900001489832 0.0 0.0 0.0 16.2900001489832 0.0 0.0 0.0 28.95393846505263" Properties=species:S:1:pos:R:3:initial_magmoms:R:1 pbc="T T T"
Si       1.70188148      -0.81002026      -1.33868534       0.00000000
Si       1.23435847       1.31326723       1.45371934       0.00000000
Si      -1.24691806      -1.61233534       1.23204799       0.00000000
Si      -0.82652203       1.70872328      -1.44341174       0.00000000
Si      -2.69221574       2.32205807      -0.13909472       0.00000000
Si       2.44141490       2.66590739      -0.05081416       0.00000000
Si       0.64213552      -1.05565717      -3.41430633       0.00000000
Si       3.41345550       0.80073496      -1.06321757       0.00000000
Si       2.57036654      -0.14784804       2.71484664       0.00000000
Si      -2.70293456      -0.36559647       2.62113887       0.00000000
