10
Lattice="16.2900001489832 0.0 0.0 0.0 16.2900001489832 0.0 0.0 0.0 28.95393846505263" Properties=species:S:1:pos:R:3:initial_magmoms:R:1 pbc="T T T"
Si       0.87534316       0.27785853       2.14774525       0.00000000
Si      -0.91181647      -2.18821943       0.04838203       0.00000000
Si      -1.11537631       1.97299595      -0.80917572       0.00000000
Si       1.60801849      -0.87280192      -1.56368640       0.00000000
Si       1.26473932      -2.99731116      -0.57618338       0.00000000
Si      -2.49129488      -1.78621481      -1.73043213       0.00000000
Si      -1.01579554       1.07062768       3.43431350       0.00000000
Si       2.94839229       1.39657429       1.94162216       0.00000000
Si      -1.69577273       1.67192417      -3.05797021       0.00000000
Si       3.67932459       0.26500572      -1.73714945       0.00000000
