10
Lattice="16.2900001489832 0.0 0.0 0.0 16.2900001489832 0.0 0.0 0.0 28.95393846505263" Properties=species:S:1:pos:R:3:initial_magmoms:R:1 pbc="T T T"
Si       1.18688941       1.67871710      -1.04622161       0.00000000
Si      -1.82604386       1.10066644       0.88984139       0.00000000
Si      -0.84981673      -1.48144519      -1.56467083       0.00000000
Si       1.27182547      -0.81318052       1.79659188       0.00000000
Si      -2.56838405      -0.50705883       2.39292720       0.00000000
Si       1.23556393       3.38286288       0.51355601       0.00000000
Si      -1.02390796       3.31284846       1.22538858       0.00000000
Si       1.04378176       1.06943851       3.37049902       0.00000000
Si       0.23402214      -3.51728796      -1.11110739       0.00000000
Si       0.08452881      -0.99259858      -3.61052717       0.00000000
