10
Lattice="16.2900001489832 0.0 0.0 0.0 16.2900001489832 0.0 0.0 0.0 28.95393846505263" Properties=species:S:1:pos:R:3:initial_magmoms:R:1 pbc="T T T"
Si      -1.26366418       1.96112054      -0.10281544       0.00000000
Si       1.25415734       0.47797141      -1.92346804       0.00000000
Si       1.54960255       0.12176026       1.75753302       0.00000000
Si      -0.56622412      -2.31912587      -0.16127344       0.00000000
H       -2.69814530      -0.22739211       0.01024969       0.00000000
H       -0.11984553       2.83538856       0.29851511       0.00000000
Si       1.74328251      -2.87471262      -0.03277586       0.00000000
Si       2.53627483      -1.42379488      -1.69119955       0.00000000
Si       1.86790753      -2.14747814       2.20820107       0.00000000
Si      -2.01859166       2.13539096      -2.31544646       0.00000000
