10
Lattice="16.2900001489832 0.0 0.0 0.0 16.2900001489832 0.0 0.0 0.0 28.95393846505263" Properties=species:S:1:pos:R:3:initial_magmoms:R:1 pbc="T T T"
Si       0.95716783       1.72682147      -1.31427717       0.00000000
Si      -1.99405892       1.01182078       0.81545872       0.00000000
Si      -0.63842140      -2.09598056      -0.95860699       0.00000000
Si       1.58252464      -0.62825644       1.68511922       0.00000000
H       -3.15548706      -0.48811356       0.16199729       0.00000000
Si      -2.03131415      -0.61654393       2.50544220       0.00000000
Si      -2.93617479      -1.23478201      -1.16985493       0.00000000
Si       1.71475058      -3.00585038      -0.22673829       0.00000000
Si       2.10564542       0.31131819      -2.73857932       0.00000000
Si      -1.03153168       2.94023100       1.75955979       0.00000000
