10
Lattice="16.2900001489832 0.0 0.0 0.0 16.2900001489832 0.0 0.0 0.0 28.95393846505263" Properties=species:S:1:pos:R:3:initial_magmoms:R:1 pbc="T T T"
Si      -1.80085952       0.84690082       1.24128430       0.00000000
Si      -1.27506718      -1.25105572      -1.52399055       0.00000000
Si       1.44223516      -1.37414296       1.24768312       0.00000000
Si       1.34361550       1.40555008      -1.35159880       0.00000000
H       -0.13983336       2.83414237       0.97461852       0.00000000
H        0.31789935       1.49038840       3.42988355       0.00000000
Si      -2.81219160      -2.47601486      -0.28534106       0.00000000
Si      -3.32868234      -0.98525179       1.46072620       0.00000000
Si      -2.72150516       2.64096740      -0.02837486       0.00000000
Si      -1.16084170       1.15487956       3.47887361       0.00000000
