10
Lattice="16.2900001489832 0.0 0.0 0.0 16.2900001489832 0.0 0.0 0.0 28.95393846505263" Properties=species:S:1:pos:R:3:initial_magmoms:R:1 pbc="T T T"
Si      -0.36680193      -0.48780405      -2.24563851       0.00000000
Si      -0.34327917      -2.12450924       0.98750303       0.00000000
Si       2.07130610       1.13780764      -0.17346305       0.00000000
Si      -1.60801849       0.87280192       1.56368640       0.00000000
Si      -2.51983496      -1.31541751       1.61206843       0.00000000
Si       0.02107926       1.60391341      -3.20800952       0.00000000
Si       2.83863027       1.23061177       2.02405402       0.00000000
Si       1.59146785      -2.56618001       2.44165668       0.00000000
Si      -0.73267534       1.15066045       3.71143165       0.00000000
Si      -2.72339480       2.84579787       0.75451068       0.00000000
