10
Lattice="16.2900001489832 0.0 0.0 0.0 16.2900001489832 0.0 0.0 0.0 28.95393846505263" Properties=species:S:1:pos:R:3:initial_magmoms:R:1 pbc="T T T"
Si       1.13050972      -1.81565084       0.99673933       0.00000000
Si      -1.25175619      -1.47940894      -1.39474017       0.00000000
Si       1.42035769       1.27791793      -1.43782363       0.00000000
Si      -1.29984427       1.52045974       1.36555460       0.00000000
H       -0.00677664      -2.83467994       0.86717046       0.00000000
H        1.37844352       0.57980998       2.94412332       0.00000000
H        3.02417337       0.19337859       1.55859051       0.00000000
Si      -2.52170831       2.64593585      -0.29252164       0.00000000
Si      -2.52273458      -0.14877657      -2.87590785       0.00000000
Si       2.76253968       2.72158661      -0.13790761       0.00000000
