10
Lattice="16.2900001489832 0.0 0.0 0.0 16.2900001489832 0.0 0.0 0.0 28.95393846505263" Properties=species:S:1:pos:R:3:initial_magmoms:R:1 pbc="T T T"
Si       0.68571127       0.74060857       2.07848743       0.00000000
Si       1.60399486      -1.06899868      -1.29296708       0.00000000
Si      -0.97309945       1.70940746      -1.35883729       0.00000000
Si      -1.36399429      -1.60776111       1.15300374       0.00000000
Si      -1.49622022       0.76983283       3.06486125       0.00000000
Si       0.26215497      -2.19188468      -2.84924127       0.00000000
Si      -3.07874487       1.39808926       1.37974203       0.00000000
Si      -2.33950466       0.51289065      -2.84165534       0.00000000
Si      -2.12157704       3.12491073       0.06546485       0.00000000
Si      -3.71716626      -0.69789130       0.42113503       0.00000000
