10
Lattice="16.2900001489832 0.0 0.0 0.0 16.2900001489832 0.0 0.0 0.0 28.95393846505263" Properties=species:S:1:pos:R:3:initial_magmoms:R:1 pbc="T T T"
Si       0.44531973      -0.62247511      -2.18217148       0.00000000
Si      -0.76233943      -1.93774927       1.08363010       0.00000000
Si       0.63842140       2.09598056       0.95860699       0.00000000
Si      -2.29775339       0.86119855      -0.21124794       0.00000000
Si       2.35317197      -0.90986981       0.73186870       0.00000000
H       -2.51706566       1.60786700       1.12060428       0.00000000
Si      -1.38113137      -0.86496480       3.10137216       0.00000000
Si       1.37766160       1.21078195      -3.26279037       0.00000000
Si       2.22094604       1.46772413       2.64372621       0.00000000
Si       3.71716626       0.69789130      -0.42113503       0.00000000
