10
Lattice="16.2900001489832 0.0 0.0 0.0 16.2900001489832 0.0 0.0 0.0 28.95393846505263" Properties=species:S:1:pos:R:3:initial_magmoms:R:1 pbc="T T T"
Si      -1.36047565      -1.34855137      -1.33943815       0.00000000
Si      -1.39408192       1.34491870       1.32771180       0.00000000
Si       1.31983210       1.36635634      -1.39175791       0.00000000
Si       1.39103569      -1.36014985       1.32745122       0.00000000
Si       0.04357575       2.68236029       2.60269848       0.00000000
Si       0.00316026      -2.69195510      -2.67719697       0.00000000
Si       0.03339450      -2.78655114       2.58431273       0.00000000
Si      -2.68151321       0.03018537      -2.70447158       0.00000000
Si       2.68569974       2.71836119      -0.07255857       0.00000000
Si      -2.72142371      -2.70190829       0.00726744       0.00000000
