10
Lattice="16.2900001489832 0.0 0.0 0.0 16.2900001489832 0.0 0.0 0.0 28.95393846505263" Properties=species:S:1:pos:R:3:initial_magmoms:R:1 pbc="T T T"
Si       0.95905747       1.79701508       1.09906255       0.00000000
Si      -1.26882811       1.34778574      -1.39407423       0.00000000
Si       1.41045337      -1.33981993      -1.26019122       0.00000000
Si      -1.71005906      -0.97723711       1.26265230       0.00000000
Si      -2.52058430       2.60903900       0.11483132       0.00000000
Si      -3.35868852       0.73821394       1.26250753       0.00000000
Si      -2.61912251      -0.08710263      -2.60929998       0.00000000
Si       1.47108475       1.12493854       3.21773804       0.00000000
Si       2.64069047      -2.64023435       0.17910906       0.00000000
Si       0.18813321       2.71601543      -2.58717917       0.00000000
