10
Lattice="16.2900001489832 0.0 0.0 0.0 16.2900001489832 0.0 0.0 0.0 28.95393846505263" Properties=species:S:1:pos:R:3:initial_magmoms:R:1 pbc="T T T"
H        0.21675474      -1.08260083      -1.02942833       0.00000000
Si      -1.25560063       1.43780428      -1.34187028       0.00000000
Si      -1.14346027      -1.31501026       1.58818143       0.00000000
Si       2.05278437       1.02780127       0.56147477       0.00000000
H        1.74542465      -1.54000774       0.89887502       0.00000000
H        1.86756707      -2.77806405      -0.36285076       0.00000000
H        1.86248459      -1.46903221      -2.41496115       0.00000000
Si       2.13473936      -1.59456295       2.36249661       0.00000000
Si      -2.46153305      -0.14195106      -2.60799705       0.00000000
Si       1.38505726       3.36168588       0.61585027       0.00000000
