10
Lattice="16.2900001489832 0.0 0.0 0.0 16.2900001489832 0.0 0.0 0.0 28.95393846505263" Properties=species:S:1:pos:R:3:initial_magmoms:R:1 pbc="T T T"
Si       0.25013295       2.24699375       0.30668012       0.00000000
Si      -1.40221063      -0.95162923       1.54909362       0.00000000
Si       2.18538008      -0.77155957      -0.19106704       0.00000000
Si      -1.00742248       0.44492877      -2.08540742       0.00000000
H        0.64597996       2.72616410      -1.08878390       0.00000000
Si       1.11773396       0.47581461      -3.14645345       0.00000000
Si       2.92772028       0.83616571      -1.69415285       0.00000000
Si       1.76369714      -2.57561192      -1.61809085       0.00000000
Si      -0.26619489      -2.94326094       1.93765547       0.00000000
Si      -3.37958859      -1.05580378       0.20146150       0.00000000
