10
Lattice="16.2900001489832 0.0 0.0 0.0 16.2900001489832 0.0 0.0 0.0 28.95393846505263" Properties=species:S:1:pos:R:3:initial_magmoms:R:1 pbc="T T T"
Si       0.94921831      -2.01002312      -0.85567574       0.00000000
Si      -0.54411858       0.04456944       2.33021297       0.00000000
Si       1.82804753       1.54530199       0.04334405       0.00000000
Si      -1.93474703       0.44167077      -1.45415365       0.00000000
H       -2.40492530      -2.12947769       0.70942940       0.00000000
Si      -0.29528883      -2.18878958      -2.80048284       0.00000000
Si       2.83547001       1.10037322       2.12875146       0.00000000
Si      -1.81556939       1.98524603       2.78806160       0.00000000
Si      -1.59146785       2.56618001      -2.44165668       0.00000000
Si       1.43325937       0.14874399       3.67784508       0.00000000
