10
Lattice="16.2900001489832 0.0 0.0 0.0 16.2900001489832 0.0 0.0 0.0 28.95393846505263" Properties=species:S:1:pos:R:3:initial_magmoms:R:1 pbc="T T T"
Si       1.41288482       1.28673245      -1.31965103       0.00000000
Si      -1.33398811       1.38882188       1.31696989       0.00000000
Si       1.37643985      -1.36796742       1.30252188       0.00000000
Si      -1.30694671      -1.31924403      -1.42511575       0.00000000
Si      -2.67273290      -0.00269274       2.63671936       0.00000000
Si      -2.66080862      -2.67624992      -0.06106386       0.00000000
Si       0.01537776      -2.72611361       2.63619819       0.00000000
Si      -2.65673612       0.12481235      -2.71066482       0.00000000
Si       2.71991200      -0.00428916       2.66555748       0.00000000
Si       0.03666879       2.70422310       2.68704131       0.00000000
