10
Lattice="16.2900001489832 0.0 0.0 0.0 16.2900001489832 0.0 0.0 0.0 28.95393846505263" Properties=species:S:1:pos:R:3:initial_magmoms:R:1 pbc="T T T"
Si       1.33398811      -1.38882188      -1.31696989       0.00000000
Si      -1.33874479      -1.39151462       1.31974947       0.00000000
Si       1.37065690       1.31540122       1.37007141       0.00000000
Si      -1.33116994       1.37779192      -1.35643411       0.00000000
Si      -2.68488524      -0.04649166       2.66486259       0.00000000
Si      -2.70676271       0.02661786      -2.66371022       0.00000000
Si       2.71529620       2.65601936       0.00353238       0.00000000
Si       2.74687293      -0.10208943      -2.63662092       0.00000000
Si      -2.68877855       2.70159878       0.02533470       0.00000000
Si       0.02678076       2.66940974       2.72491306       0.00000000
