10
Lattice="16.2900001489832 0.0 0.0 0.0 16.2900001489832 0.0 0.0 0.0 28.95393846505263" Properties=species:S:1:pos:R:3:initial_magmoms:R:1 pbc="T T T"
Si       1.35428545      -1.37795482       1.32189206       0.00000000
Si       1.36550926       1.35444835      -1.34302844       0.00000000
Si      -1.33506325      -1.34574949      -1.38634353       0.00000000
Si      -1.36440154       1.33382521       1.37644128       0.00000000
Si      -2.67768506       2.67623525      -0.03109653       0.00000000
Si      -2.68778486      -2.68731245      -0.02162859       0.00000000
Si       2.70856765      -0.01657019       2.66697623       0.00000000
Si       2.68112714      -2.71008587      -0.08500876       0.00000000
Si       0.02722059       2.71743266      -2.69697251       0.00000000
Si       0.01567098      -2.73799064       2.68379846       0.00000000
