10
Lattice="16.2900001489832 0.0 0.0 0.0 16.2900001489832 0.0 0.0 0.0 28.95393846505263" Properties=species:S:1:pos:R:3:initial_magmoms:R:1 pbc="T T T"
Si       0.65091583       2.00283923       0.96766958       0.00000000
Si       1.24672258      -0.09014886      -1.96918631       0.00000000
Si      -2.27454014       0.19334601      -0.48969796       0.00000000
Si       0.12297321      -1.96227713       1.27023823       0.00000000
Si       0.33951618      -3.37514142      -0.56413854       0.00000000
Si      -3.20888568      -0.29550060       1.55615838       0.00000000
Si       2.23179518       2.02364156      -1.95803904       0.00000000
Si       0.59740318       3.38138049      -1.06101708       0.00000000
Si      -0.28584063      -1.02006352      -3.56353493       0.00000000
Si      -1.17217954       2.86466169       2.07460760       0.00000000
