10
Lattice="16.2900001489832 0.0 0.0 0.0 16.2900001489832 0.0 0.0 0.0 28.95393846505263" Properties=species:S:1:pos:R:3:initial_magmoms:R:1 pbc="T T T"
H        0.78807763       0.62786548      -1.12028579       0.00000000
H       -0.42847587       1.18482058       0.82651913       0.00000000
Si      -1.91376551      -0.62949448      -1.08400650       0.00000000
Si       1.18535815      -1.36617715       1.46527196       0.00000000
H        0.81037864       2.62076780       0.02162859       0.00000000
Si       1.23403267       0.33796863       3.02504958       0.00000000
Si       2.95494087      -0.84945835      -1.67035271       0.00000000
Si      -2.00401211       1.04370031      -2.74903169       0.00000000
Si       2.06112485       2.79948540      -0.81551663       0.00000000
Si      -1.39075876      -2.63393012      -2.21404977       0.00000000
