10
Lattice="16.2900001489832 0.0 0.0 0.0 16.2900001489832 0.0 0.0 0.0 28.95393846505263" Properties=species:S:1:pos:R:3:initial_magmoms:R:1 pbc="T T T"
Si       1.28049175       1.31022100       1.45727489       0.00000000
Si      -1.36762696      -1.33263604       1.39143363       0.00000000
Si       1.54349380      -1.31678587      -1.22094994       0.00000000
Si      -1.41410233       1.38969991      -1.29587405       0.00000000
H       -1.05336028      -1.41136561      -2.69127437       0.00000000
Si       0.04841388      -2.47125818      -2.57869596       0.00000000
Si       2.59688666       2.60312573       0.05866357       0.00000000
Si      -2.65471616       2.72054405       0.18150934       0.00000000
Si      -2.74321974      -2.68381010       0.08415752       0.00000000
Si       2.67883918      -0.05440860       2.75140012       0.00000000
