10
Lattice="16.2900001489832 0.0 0.0 0.0 16.2900001489832 0.0 0.0 0.0 28.95393846505263" Properties=species:S:1:pos:R:3:initial_magmoms:R:1 pbc="T T T"
Si      -0.51202728       0.67207654      -2.11867549       0.00000000
Si      -0.22514409       2.13643026       0.87099238       0.00000000
Si      -1.87945877      -0.78998356       1.10627208       0.00000000
Si       2.13566789      -0.95102650      -0.08587738       0.00000000
Si      -0.99329905      -1.37051029       3.14080743       0.00000000
Si      -1.47108475      -1.12493854      -3.21773804       0.00000000
Si      -3.34065549       1.10855080       1.22275378       0.00000000
Si       1.40100517       1.55230669      -3.13125263       0.00000000
Si       3.66349071       0.88112611      -0.30531928       0.00000000
Si      -2.13299633       2.42382496      -2.04304781       0.00000000
