10
Lattice="16.2900001489832 0.0 0.0 0.0 16.2900001489832 0.0 0.0 0.0 28.95393846505263" Properties=species:S:1:pos:R:3:initial_magmoms:R:1 pbc="T T T"
Si       1.38611611      -1.40506138      -1.24719090       0.00000000
Si      -1.91303246      -0.88023016       1.01257714       0.00000000
Si      -1.26408772       1.39798012      -1.38367977       0.00000000
Si       1.34183989       1.12288600       1.55627419       0.00000000
Si      -0.26215497       2.19188468       2.84924127       0.00000000
Si       2.26248554      -0.67118059       2.82593335       0.00000000
Si       2.73346202       0.02827944      -2.52148269       0.00000000
Si      -2.60165963       2.70477533       0.00758593       0.00000000
Si       0.00164529      -2.70788672      -2.61199270       0.00000000
Si      -1.40100517      -1.55230669       3.13125263       0.00000000
