10
Lattice="16.2900001489832 0.0 0.0 0.0 16.2900001489832 0.0 0.0 0.0 28.95393846505263" Properties=species:S:1:pos:R:3:initial_magmoms:R:1 pbc="T T T"
Si       1.29810124       1.33755562       1.42656634       0.00000000
Si      -1.39756798       1.43091361      -1.27782996       0.00000000
Si      -1.31795875      -1.29042865       1.50013830       0.00000000
Si       1.35259129      -1.44506962      -1.34104509       0.00000000
Si      -0.23581404      -2.62086554      -2.65373849       0.00000000
Si       2.65838005       2.66730833       0.06570517       0.00000000
Si       2.56459988      -2.80116327       0.13942769       0.00000000
Si      -2.68700294      -2.68374494       0.26227346       0.00000000
Si      -2.90893791       0.11357388      -2.46893910       0.00000000
Si       2.65724076      -0.02521692       2.77141887       0.00000000
