10
Lattice="16.2900001489832 0.0 0.0 0.0 16.2900001489832 0.0 0.0 0.0 28.95393846505263" Properties=species:S:1:pos:R:3:initial_magmoms:R:1 pbc="T T T"
Si       1.36027880       1.32975271      -1.36086117       0.00000000
Si      -1.29810124      -1.33755562      -1.42656634       0.00000000
Si       1.35913951      -1.36277254       1.34485253       0.00000000
Si      -1.35527914       1.37384974       1.35162776       0.00000000
Si      -2.61605999      -2.62798427       0.07357196       0.00000000
Si      -2.69566922       0.09335799      -2.70439630       0.00000000
Si       2.69955602       0.00068418       2.70235794       0.00000000
Si       2.67916420       2.73331541       0.00052117       0.00000000
Si       0.02541240       2.74973574      -2.68109706       0.00000000
Si       2.70933816      -2.72569169      -0.01751713       0.00000000
