10
Lattice="16.2900001489832 0.0 0.0 0.0 16.2900001489832 0.0 0.0 0.0 28.95393846505263" Properties=species:S:1:pos:R:3:initial_magmoms:R:1 pbc="T T T"
Si      -1.36586764      -1.35200485      -1.31919934       0.00000000
Si       1.31978323      -1.42978960       1.29276440       0.00000000
Si      -1.32049999       1.36619344       1.36173268       0.00000000
Si       1.35063649       1.35066907      -1.35159880       0.00000000
Si       2.67827802      -0.07672590       2.56827225       0.00000000
Si      -2.64212399      -0.03600090       2.67525705       0.00000000
Si       0.05009175      -2.68897403      -2.63275267       0.00000000
Si      -2.68967450       0.04193046      -2.66121439       0.00000000
Si       0.00180819       2.72476316      -2.67146409       0.00000000
Si       2.67700577       2.72758133      -0.00865723       0.00000000
