10
Lattice="16.2900001489832 0.0 0.0 0.0 16.2900001489832 0.0 0.0 0.0 28.95393846505263" Properties=species:S:1:pos:R:3:initial_magmoms:R:1 pbc="T T T"
Si      -1.23274576       1.27726633      -1.54431622       0.00000000
Si       1.34218198       1.44366868       1.29991602       0.00000000
Si       1.36190917      -1.32093982      -1.41625295       0.00000000
Si      -1.42035769      -1.27791793       1.43782363       0.00000000
H        1.60381567      -1.08453934       2.99641414       0.00000000
Si       2.60881094      -0.07556931       2.51618411       0.00000000
Si      -2.60960915       2.64189593      -0.29718322       0.00000000
Si      -2.67211388      -2.75732688       0.04308346       0.00000000
Si       2.73693180      -2.69891093      -0.16584816       0.00000000
Si      -2.63453285      -0.05812272      -2.82587544       0.00000000
