10
Lattice="16.2900001489832 0.0 0.0 0.0 16.2900001489832 0.0 0.0 0.0 28.95393846505263" Properties=species:S:1:pos:R:3:initial_magmoms:R:1 pbc="T T T"
Si       0.38931471      -0.05455521       1.46362159       0.00000000
H        0.12214242      -1.23805630      -1.26172578       0.00000000
Si      -1.74542465       1.54000774      -0.89887502       0.00000000
H       -1.52866990       0.45740691      -1.92830335       0.00000000
Si       0.30735972       2.56780901      -0.33740024       0.00000000
H        2.59151748      -1.12177828       0.49951335       0.00000000
Si      -1.02167623      -2.11232432      -1.66305632       0.00000000
Si      -2.88888492       0.22499748       0.68930641       0.00000000
Si       1.76660979       1.82518049       1.71051182       0.00000000
Si      -1.64437777       0.40376394       2.63411351       0.00000000
