10
Lattice="16.2900001489832 0.0 0.0 0.0 16.2900001489832 0.0 0.0 0.0 28.95393846505263" Properties=species:S:1:pos:R:3:initial_magmoms:R:1 pbc="T T T"
Si      -0.64671301       1.71290981      -1.46153691       0.00000000
H        0.27054432      -1.21780783       1.99761908       0.00000000
Si      -1.96374323      -1.24755337       0.54004886       0.00000000
Si       0.73552641      -1.68959882      -1.53479037       0.00000000
Si       1.75439066       0.82189567       1.46929656       0.00000000
H        0.38187018       2.82683631       0.71333818       0.00000000
H       -1.34726446       2.85456189      -0.81395312       0.00000000
H       -2.77894371       2.01635993       0.01117622       0.00000000
Si      -2.73106740      -1.34035750      -1.65746821       0.00000000
Si       0.74229833      -3.46815732      -0.06005047       0.00000000
