10
Lattice="16.2900001489832 0.0 0.0 0.0 16.2900001489832 0.0 0.0 0.0 28.95393846505263" Properties=species:S:1:pos:R:3:initial_magmoms:R:1 pbc="T T T"
Si       1.33779997       1.34894233       1.36966606       0.00000000
Si      -1.33838641       1.39880602      -1.32759599       0.00000000
Si      -1.35368272      -1.33389037       1.37991575       0.00000000
Si       1.35527914      -1.37384974      -1.35162776       0.00000000
Si      -2.69171075       0.04144176      -2.65363136       0.00000000
Si       2.68662827      -0.02515176       2.68953134       0.00000000
Si      -2.69822675      -2.69115689       0.03787175       0.00000000
Si       2.69886206       2.70708851       0.03598975       0.00000000
Si       2.71555795      -0.04409703      -2.71248892       0.00000000
Si      -2.70607853       0.01642032       2.73695790       0.00000000
