10
Lattice="16.2900001489832 0.0 0.0 0.0 16.2900001489832 0.0 0.0 0.0 28.95393846505263" Properties=species:S:1:pos:R:3:initial_magmoms:R:1 pbc="T T T"
H        0.71775370      -0.48866742       1.24015509       0.00000000
Si      -0.04867452      -1.70414579      -1.55977762       0.00000000
Si       1.22090293       1.92881747      -0.54583965       0.00000000
Si      -2.25947189      -0.07001442       0.71183258       0.00000000
H       -1.66250855       0.84685195      -2.19853046       0.00000000
Si      -1.23403267      -0.33796863      -3.02504958       0.00000000
Si      -1.71923033      -0.39201885       2.92188670       0.00000000
Si       2.28064889       2.17445438       1.52978134       0.00000000
Si      -1.23556393      -3.38286288      -0.51355601       0.00000000
Si      -0.19178217      -2.31342437       2.85694302       0.00000000
