10
Lattice="16.2900001489832 0.0 0.0 0.0 16.2900001489832 0.0 0.0 0.0 28.95393846505263" Properties=species:S:1:pos:R:3:initial_magmoms:R:1 pbc="T T T"
Si       1.36161595      -1.32939433      -1.36086406       0.00000000
Si       1.37466424       1.35361756       1.33593472       0.00000000
Si      -1.32552383       1.34182360      -1.39763556       0.00000000
Si      -1.35334715      -1.36435267       1.35281487       0.00000000
Si      -2.67208668       2.69457779      -0.05420177       0.00000000
Si       0.01198944       2.67651218       2.70843827       0.00000000
Si       2.71119359       0.05525568      -2.67763128       0.00000000
Si       0.01487277      -2.70119153      -2.69943359       0.00000000
Si       0.01907559      -2.71616204       2.69057369       0.00000000
Si       2.72899856      -0.00659745       2.68507244       0.00000000
