10
Lattice="16.2900001489832 0.0 0.0 0.0 16.2900001489832 0.0 0.0 0.0 28.95393846505263" Properties=species:S:1:pos:R:3:initial_magmoms:R:1 pbc="T T T"
Si      -1.36267480       1.32289462       1.37250355       0.00000000
Si       1.35433432      -1.36021501       1.34913772       0.00000000
Si      -1.37466424      -1.35361756      -1.33593472       0.00000000
Si       1.34174215       1.36324495      -1.36300665       0.00000000
Si      -2.68200517       2.66924684      -0.04221484       0.00000000
Si       0.03749958       2.66217698       2.69260046       0.00000000
Si      -0.01304829      -2.68301189      -2.69679878       0.00000000
Si       2.71495658      -2.67511124      -0.04128832       0.00000000
Si      -0.00444717      -2.71155197       2.71396847       0.00000000
Si       2.72846099       0.03974760      -2.69975208       0.00000000
