10
Lattice="16.2900001489832 0.0 0.0 0.0 16.2900001489832 0.0 0.0 0.0 28.95393846505263" Properties=species:S:1:pos:R:3:initial_magmoms:R:1 pbc="T T T"
H       -0.70055146       1.14165208       0.64758379       0.00000000
Si       0.64671301      -1.71290981       1.46153691       0.00000000
Si       2.13929893       0.89803513      -0.42264064       0.00000000
Si      -1.91782172      -0.73065538      -1.24409283       0.00000000
H       -2.13223070       0.30345012       1.47271313       0.00000000
H        1.02858319       1.11392650       2.17487509       0.00000000
Si      -0.29483271       0.72638740      -2.79211515       0.00000000
H       -2.23075262       2.09909684       0.06042687       0.00000000
Si       2.01467391       0.17080065      -2.66361757       0.00000000
Si       1.38223942      -3.40250862      -0.07325346       0.00000000
