10
Lattice="16.2900001489832 0.0 0.0 0.0 16.2900001489832 0.0 0.0 0.0 28.95393846505263" Properties=species:S:1:pos:R:3:initial_magmoms:R:1 pbc="T T T"
Si       2.01147293      -0.85625128       0.79438026       0.00000000
Si      -1.16750431      -1.53740134      -1.32449792       0.00000000
Si       1.29279070       1.37958382      -1.41607922       0.00000000
Si      -1.43433451       0.40615857       1.90418472       0.00000000
Si       1.65809396      -1.23243625       3.01149914       0.00000000
Si      -2.51706566      -0.14607243      -2.68617269       0.00000000
Si      -3.30708180      -1.07624773       1.36578623       0.00000000
Si      -2.38549133      -2.89290855       0.17580831       0.00000000
Si       3.68953842       0.79868242       0.73907823       0.00000000
Si       2.79070509      -0.03637557      -2.67401203       0.00000000
