10
Lattice="16.2900001489832 0.0 0.0 0.0 16.2900001489832 0.0 0.0 0.0 28.95393846505263" Properties=species:S:1:pos:R:3:initial_magmoms:R:1 pbc="T T T"
Si       1.34041650       1.36345672       1.35750540       0.00000000
Si      -1.35913951       1.36277254      -1.34485253       0.00000000
Si      -1.32833512      -1.32817258       1.41515270       0.00000000
Si       1.35019865      -1.36291915      -1.36236967       0.00000000
Si       2.68653089      -2.67519269       0.05495458       0.00000000
Si       2.82225917       0.08057034      -2.53644029       0.00000000
Si      -2.71049277      -2.67470399       0.10591351       0.00000000
Si       2.68218146      -0.00340461       2.71202855       0.00000000
Si       0.00113929       2.69252525      -2.70571370       0.00000000
Si      -0.02779038       2.71147052       2.69630657       0.00000000
