10
Lattice="16.2900001489832 0.0 0.0 0.0 16.2900001489832 0.0 0.0 0.0 28.95393846505263" Properties=species:S:1:pos:R:3:initial_magmoms:R:1 pbc="T T T"
H        0.03034827      -1.41342467      -0.53521355       0.00000000
Si       1.83441692       0.41303458       1.34881922       0.00000000
Si      -1.80312383       0.19551910       1.46770409       0.00000000
Si      -0.37460484       1.63044331      -1.67116342       0.00000000
H        1.56054943      -2.37086943       0.05194337       0.00000000
H       -0.16565301      -0.69440035      -3.21623244       0.00000000
H        0.12887019      -3.20907139       0.87707270       0.00000000
Si      -2.55746486       0.90426280      -2.15376767       0.00000000
Si       0.98903107       2.29168699       2.48280022       0.00000000
Si      -3.48304638       0.93793260       0.02214976       0.00000000
