10
Lattice="16.2900001489832 0.0 0.0 0.0 16.2900001489832 0.0 0.0 0.0 28.95393846505263" Properties=species:S:1:pos:R:3:initial_magmoms:R:1 pbc="T T T"
Si      -1.33564318       1.28006821      -1.43145049       0.00000000
Si       1.24695064       1.43115796       1.36717061       0.00000000
Si      -1.32552057      -1.34837218       1.40042710       0.00000000
Si       1.45601650      -1.24673887      -1.38909088       0.00000000
Si      -2.36511091      -0.47281725      -2.67441412       0.00000000
Si      -1.83459611      -2.65145816      -1.91483649       0.00000000
Si       2.62376516       0.08154774       2.71584216       0.00000000
Si       2.70293456       0.36559647      -2.62113887       0.00000000
Si       0.02645496      -2.59393817       2.82044695       0.00000000
Si      -2.79466492       0.01801674       2.65117354       0.00000000
