10
Lattice="16.2900001489832 0.0 0.0 0.0 16.2900001489832 0.0 0.0 0.0 28.95393846505263" Properties=species:S:1:pos:R:3:initial_magmoms:R:1 pbc="T T T"
Si       1.35157643      -1.41276655       1.25978586       0.00000000
Si      -1.32636928      -1.37691226      -1.34294157       0.00000000
Si       1.39135661       1.37658646      -1.28824758       0.00000000
Si      -1.32684169       1.33213105       1.40690082       0.00000000
Si       2.70187083       0.02212182       2.47501161       0.00000000
Si      -2.67519758      -0.00281817      -2.66280686       0.00000000
Si       0.02933666       2.71900628      -2.63344757       0.00000000
Si       2.75119695       0.02687850      -2.62991518       0.00000000
Si       0.00127225      -2.80430724       2.57692948       0.00000000
Si      -2.68112714       2.71008587       0.08500876       0.00000000
