10
Lattice="16.2900001489832 0.0 0.0 0.0 16.2900001489832 0.0 0.0 0.0 28.95393846505263" Properties=species:S:1:pos:R:3:initial_magmoms:R:1 pbc="T T T"
Si      -1.44860455      -1.41359734       1.17350313       0.00000000
Si       1.34947990      -1.42141654      -1.28419403       0.00000000
Si      -1.37637469       1.30331404      -1.38095810       0.00000000
Si       1.43856991       1.31053051       1.34546057       0.00000000
Si       0.00112401       2.52625322       2.72303105       0.00000000
Si      -0.17464509      -2.56492568       2.74894483       0.00000000
Si       2.69940110       2.63712296      -0.07930484       0.00000000
Si       2.58553253      -0.09047466      -2.76345075       0.00000000
Si      -2.71617833       2.64934046      -0.04864262       0.00000000
Si      -0.02891475      -2.73919611      -2.65620536       0.00000000
