10
Lattice="16.2900001489832 0.0 0.0 0.0 16.2900001489832 0.0 0.0 0.0 28.95393846505263" Properties=species:S:1:pos:R:3:initial_magmoms:R:1 pbc="T T T"
Si      -1.40876540       1.35250984       1.29345929       0.00000000
Si       1.12594852       1.39799152      -1.50957149       0.00000000
Si      -1.45499740      -1.33599178      -1.30327468       0.00000000
Si       1.79312177      -0.92106919       1.34473672       0.00000000
Si       0.16495254       2.17363988       2.80879262       0.00000000
Si       2.58313790       0.00910611      -2.70722220       0.00000000
Si       0.77820589      -1.50399055       3.34377454       0.00000000
Si      -0.10812488      -2.72378576      -2.62476138       0.00000000
Si       2.04224474       3.19775961      -0.35358550       0.00000000
Si       2.71471223      -2.73773000       0.15475880       0.00000000
