10
Lattice="10.86 0.0 0.0 0.0 10.86 0.0 0.0 0.0 10.86" Properties=species:S:1:pos:R:3:initial_magmoms:R:1 pbc="T T T"
Si      -1.35750000      -1.35750000       1.35750000       0.00000000
Si       1.35750000       1.35750000       1.35750000       0.00000000
Si      -1.35750000       1.35750000      -1.35750000       0.00000000
Si       1.35750000      -1.35750000      -1.35750000       0.00000000
Si       0.12408636      -2.54882028       2.49748506       0.00000000
Si      -2.62325472      -2.63385408      -0.02213268       0.00000000
Si       2.71500000      -2.71500000       0.00000000       0.00000000
Si       0.00000000      -2.71500000      -2.71500000       0.00000000
Si       2.71500000       0.00000000       2.71500000       0.00000000
Si       2.71500000       0.00000000      -2.71500000       0.00000000
