10
Lattice="10.86 0.0 0.0 0.0 10.86 0.0 0.0 0.0 10.86" Properties=species:S:1:pos:R:3:initial_magmoms:R:1 pbc="T T T"
Si       1.29677088       1.41426522       1.19639190       0.00000000
Si      -1.41822912      -1.30073478       1.19639190       0.00000000
Si       1.03994274      -1.41397200      -1.53566916       0.00000000
Si      -1.41822912       1.41426522      -1.51860810       0.00000000
Si       2.65427088       0.05676522       2.55389190       0.00000000
Si      -0.06072912      -2.65823478       2.55389190       0.00000000
Si       2.57595942      -2.66706396      -0.16992642       0.00000000
Si      -0.06072912       2.77176522       2.55389190       0.00000000
Si      -2.77572912       0.05676522       2.55389190       0.00000000
Si       0.01528002       2.72143998      -2.66266566       0.00000000
