10
Lattice="10.86 0.0 0.0 0.0 10.86 0.0 0.0 0.0 10.86" Properties=species:S:1:pos:R:3:initial_magmoms:R:1 pbc="T T T"
Si      -1.31176854       1.27409520      -1.32665760       0.00000000
Si       1.40323146       1.27409520       1.38834240       0.00000000
Si      -1.31176854      -1.44090480       1.38834240       0.00000000
Si      -2.59325940      -0.13373004      -2.47071516       0.00000000
Si      -2.66926854       2.63159520       0.03084240       0.00000000
Si       0.04573146       2.63159520      -2.68415760       0.00000000
Si       0.04573146       2.63159520       2.74584240       0.00000000
Si       2.62211442      -2.76120930      -0.01830996       0.00000000
Si       2.76073146       2.63159520       0.03084240       0.00000000
Si      -2.66926854      -0.08340480       2.74584240       0.00000000
