10
Lattice="16.28999089631971 0.0 0.0 0.0 16.28999089631971 0.0 0.0 0.0 34.33025523377368" Properties=species:S:1:pos:R:3:initial_magmoms:R:1 pbc="T T T"
Si       1.38371984       1.85958495       0.29280291       0.00000000
Si      -0.96648733       0.01876608      -2.14739300       0.00000000
Si       1.30529978      -1.97653086      -0.08651229       0.00000000
Si      -1.56956661      -0.36012303       1.86059788       0.00000000
Si       1.54927511       1.91140344       2.64037574       0.00000000
Si       2.38421906      -2.00492433       1.95236271       0.00000000
Si      -1.41682617      -2.72777679       2.05724169       0.00000000
Si      -2.10905883      -2.09968326      -2.22817213       0.00000000
Si      -2.51104716       1.77165153      -2.31684723       0.00000000
Si      -0.02381109      -3.83759820       0.37550454       0.00000000
