10
Lattice="16.28999089631971 0.0 0.0 0.0 16.28999089631971 0.0 0.0 0.0 34.33025523377368" Properties=species:S:1:pos:R:3:initial_magmoms:R:1 pbc="T T T"
Si      -0.39769131       2.27225856       0.14748286       0.00000000
Si       1.76313551      -1.30015377       0.79004261       0.00000000
Si      -1.54805853      -0.72211941       1.66759308       0.00000000
Si      -0.02670285      -0.63583128      -2.37239361       0.00000000
Si       0.65465965      -3.31866396       0.12709068       0.00000000
Si      -2.34301053       2.22803447      -1.19709667       0.00000000
Si      -2.12193894       0.42665139      -2.76952623       0.00000000
Si       3.41450168      -0.57925611      -0.72872874       0.00000000
Si      -1.26619266      -3.07314108       1.51949228       0.00000000
Si       1.48013585       3.24501265      -0.87706985       0.00000000
