10
Lattice="16.28999089631971 0.0 0.0 0.0 16.28999089631971 0.0 0.0 0.0 34.33025523377368" Properties=species:S:1:pos:R:3:initial_magmoms:R:1 pbc="T T T"
Si       1.81473206       1.53933984       0.06454092       0.00000000
Si       0.01239506      -1.94654097       1.42117037       0.00000000
Si      -2.06107337       1.21963230       0.28628016       0.00000000
Si       0.09594973      -0.73331064      -2.39288879       0.00000000
Si      -1.31549636       0.98891703      -2.92669022       0.00000000
Si       2.82256178       0.38672460       1.90110761       0.00000000
Si      -1.90336988      -3.01006620       0.41419476       0.00000000
Si       1.24682194      -1.03508289       3.28494865       0.00000000
Si       1.77234548      -3.27489273       0.61705235       0.00000000
Si      -3.29139191       0.88141932      -1.69062869       0.00000000
