10
Lattice="16.28999089631971 0.0 0.0 0.0 16.28999089631971 0.0 0.0 0.0 34.33025523377368" Properties=species:S:1:pos:R:3:initial_magmoms:R:1 pbc="T T T"
Si       1.34822556      -1.34956900       1.35429500       0.00000000
Si       1.34201907       1.34851715      -1.37678476       0.00000000
Si      -1.36518345       1.36549133       1.34959175       0.00000000
Si      -1.34506530      -1.36594161      -1.37269602       0.00000000
Si      -0.60417981       2.11312088      -2.50868824       0.00000000
Si      -2.35695123       0.27004748      -2.70597746       0.00000000
Si       2.70342324      -2.70929646      -0.00710637       0.00000000
Si       2.70456354       0.00672940       2.70986021       0.00000000
Si      -0.00834048      -2.70781407       2.70996320       0.00000000
Si       2.69936703       2.72808467      -0.01184394       0.00000000
