10
Lattice="16.28999089631971 0.0 0.0 0.0 16.28999089631971 0.0 0.0 0.0 34.33025523377368" Properties=species:S:1:pos:R:3:initial_magmoms:R:1 pbc="T T T"
Si      -1.89697050      -1.09526045      -0.79484884       0.00000000
Si       1.78623108      -1.48276697       0.36376359       0.00000000
Si      -0.85972104       0.71423994       2.09394076       0.00000000
Si       0.22100643       2.10913635      -1.09026086       0.00000000
Si      -3.50897351       0.51405701      -0.07930293       0.00000000
Si       1.27312866       3.25375320       0.68293215       0.00000000
Si       0.84118302       2.16828534       2.72355799       0.00000000
Si       0.53991576      -3.40174526       1.09046684       0.00000000
Si      -1.57460769      -3.31021175       0.06903818       0.00000000
Si      -2.64536568       2.11804698       1.48626057       0.00000000
