10
Lattice="16.28999089631971 0.0 0.0 0.0 16.28999089631971 0.0 0.0 0.0 34.33025523377368" Properties=species:S:1:pos:R:3:initial_magmoms:R:1 pbc="T T T"
Si       1.70090406       1.45404540       0.62961723       0.00000000
Si      -1.78564464       1.40380704      -0.60768019       0.00000000
Si       0.85972104      -0.71423994      -2.09394076       0.00000000
Si      -0.37579401      -1.01480347       2.11975712       0.00000000
Si       0.49948398       2.38254282       2.41558110       0.00000000
Si      -2.64925247      -0.20018292      -2.17324369       0.00000000
Si      -1.03724946      -1.80950039      -2.88878960       0.00000000
Si       3.27958425      -0.02234988       1.42233760       0.00000000
Si       2.13284970       2.53951326      -1.41100861       0.00000000
Si      -1.12094748       0.87434946       3.32856042       0.00000000
