10
Lattice="16.28999089631971 0.0 0.0 0.0 16.28999089631971 0.0 0.0 0.0 34.33025523377368" Properties=species:S:1:pos:R:3:initial_magmoms:R:1 pbc="T T T"
Si      -0.97314831      -1.65768669      -1.35642347       0.00000000
Si      -1.48748877      -0.05481585       1.85905302       0.00000000
Si      -0.13106934       2.10474945      -1.18583634       0.00000000
Si       2.47218669      -0.23578146      -0.08373154       0.00000000
Si       0.32003334       0.26197578       3.32502440       0.00000000
Si       0.98308521       1.13349078      -3.02707195       0.00000000
Si       0.00933417      -0.99667107      -3.41074709       0.00000000
Si       1.06958511       3.40917120       0.86306310       0.00000000
Si       1.80744066       2.02080708       2.58084704       0.00000000
Si      -2.72021823      -2.07881577       1.69265418       0.00000000
