10
Lattice="16.28999089631971 0.0 0.0 0.0 16.28999089631971 0.0 0.0 0.0 34.33025523377368" Properties=species:S:1:pos:R:3:initial_magmoms:R:1 pbc="T T T"
Si      -1.37428956       1.18550475      -1.56110057       0.00000000
Si       1.09511154       1.67001822       1.34121516       0.00000000
Si      -1.82935071      -0.85586031       1.40544710       0.00000000
Si       1.32178689      -1.52231679      -1.55921240       0.00000000
Si      -2.62555704       2.54084904      -0.03649308       0.00000000
Si       2.65225635       2.50784550      -0.16622719       0.00000000
Si      -2.72774421      -2.72275947       0.02413418       0.00000000
Si      -0.03015279       2.53146600      -2.94299710       0.00000000
Si       2.86387974      -2.68249059      -0.21521649       0.00000000
Si      -3.62576304       0.82797183       1.32480529       0.00000000
