10
Lattice="16.28999089631971 0.0 0.0 0.0 16.28999089631971 0.0 0.0 0.0 34.33025523377368" Properties=species:S:1:pos:R:3:initial_magmoms:R:1 pbc="T T T"
Si       1.01639826       0.50226957       2.06500034       0.00000000
Si      -0.76980024      -2.22782040      -0.04562493       0.00000000
Si       1.58167755      -0.08597862      -1.90491827       0.00000000
Si      -0.82665234       2.30625675      -1.90993049       0.00000000
Si       2.99514456      -1.74913875      -0.67139718       0.00000000
Si       1.28099673      -3.45496239      -0.33420522       0.00000000
Si      -0.08646732       2.39303358       2.88841197       0.00000000
Si      -2.60097543      -2.40622848      -1.68149684       0.00000000
Si      -1.74672783      -2.99903787       1.92373126       0.00000000
Si       3.35427390       0.86939730       2.07179773       0.00000000
