10
Lattice="16.28999089631971 0.0 0.0 0.0 16.28999089631971 0.0 0.0 0.0 34.33025523377368" Properties=species:S:1:pos:R:3:initial_magmoms:R:1 pbc="T T T"
Si      -0.15817590       1.26608649      -1.95943474       0.00000000
Si      -1.87782716      -0.97275409       1.02455271       0.00000000
Si       1.61200301      -1.60931746      -0.71554591       0.00000000
Si       0.86360783       1.60398996       1.56556350       0.00000000
Si       2.64925247       0.20018292       2.17324369       0.00000000
Si       1.62306392       2.73252858      -1.33922401       0.00000000
Si       3.50897351      -0.51405701       0.07930293       0.00000000
Si      -1.01609201       1.74079338       2.98615026       0.00000000
Si      -1.48013585      -3.24501265       0.87706985       0.00000000
Si       1.44644774      -1.66113595      -3.06311874       0.00000000
