10
Lattice="16.28999089631971 0.0 0.0 0.0 16.28999089631971 0.0 0.0 0.0 34.33025523377368" Properties=species:S:1:pos:R:3:initial_magmoms:R:1 pbc="T T T"
Si       0.15817590      -1.26608649       1.95943474       0.00000000
Si      -2.18670185       0.83852775      -0.15795359       0.00000000
Si       0.73644809      -0.91839762      -2.07368590       0.00000000
Si       1.78123982       1.46644209       0.62021074       0.00000000
Si       2.00369606       2.35827072      -1.52079683       0.00000000
Si       1.60462364      -2.92722245      -1.10368399       0.00000000
Si      -2.01754649       2.63603151       1.31557045       0.00000000
Si       1.77017891      -2.87540396       1.24388883       0.00000000
Si       1.02178373       0.33790347       3.52499825       0.00000000
Si      -2.25474518       2.02540086      -2.14347934       0.00000000
