10
Lattice="16.28999089631971 0.0 0.0 0.0 16.28999089631971 0.0 0.0 0.0 34.33025523377368" Properties=species:S:1:pos:R:3:initial_magmoms:R:1 pbc="T T T"
Si       1.35141840       1.36627488      -1.36648224       0.00000000
Si      -1.36273995      -1.35298224      -1.37005259       0.00000000
Si       1.31966919      -1.37660274       1.40671732       0.00000000
Si      -1.29720528       1.41490053       1.41941953       0.00000000
Si      -0.23747562      -2.21443002       2.91415967       0.00000000
Si       2.48096700       0.06700077       2.88693577       0.00000000
Si      -2.70687672      -2.69894349       0.01184394       0.00000000
Si       2.71124244      -2.70277164      -0.00720936       0.00000000
Si      -2.70208746       2.71976211      -0.00209415       0.00000000
Si      -0.00073305      -2.70819621      -2.72596111       0.00000000
