10
Lattice="16.28999089631971 0.0 0.0 0.0 16.28999089631971 0.0 0.0 0.0 34.33025523377368" Properties=species:S:1:pos:R:3:initial_magmoms:R:1 pbc="T T T"
Si      -1.40488218       1.30486158      -1.42151367       0.00000000
Si       1.29720528      -1.41490053      -1.41941953       0.00000000
Si       1.40413284       1.30212486       1.47225382       0.00000000
Si      -1.76619438      -0.97924077       1.37667833       0.00000000
Si       2.61687447      -2.79150327      -0.01270220       0.00000000
Si      -2.59893918       2.81706735      -0.06038695       0.00000000
Si      -2.66093892      -2.75849973       0.11703191       0.00000000
Si       2.64862368      -0.04862565      -2.78590177       0.00000000
Si       2.73776256       2.70865772       0.04147097       0.00000000
Si      -0.06553467       2.66278048      -2.78816757       0.00000000
