10
Lattice="16.28999089631971 0.0 0.0 0.0 16.28999089631971 0.0 0.0 0.0 34.33025523377368" Properties=species:S:1:pos:R:3:initial_magmoms:R:1 pbc="T T T"
Si      -0.34640685      -1.05862194      -2.06194494       0.00000000
Si       1.84197546       1.52684541      -0.13028339       0.00000000
Si      -2.12913558       1.10560230       0.32888403       0.00000000
Si       0.08853615      -1.43317791       1.95521212       0.00000000
Si      -1.64623482      -2.84868117      -1.01346403       0.00000000
Si       1.01327058       2.88246663       1.61898141       0.00000000
Si      -1.15538454       3.23576415       0.71255918       0.00000000
Si      -0.87195483       0.84243735      -3.47975095       0.00000000
Si       3.69918207       0.04452057      -0.04301583       0.00000000
Si      -2.11895433      -1.63678662       2.65359289       0.00000000
