10
Lattice="16.28999089631971 0.0 0.0 0.0 16.28999089631971 0.0 0.0 0.0 34.33025523377368" Properties=species:S:1:pos:R:3:initial_magmoms:R:1 pbc="T T T"
Si      -1.35140211      -1.36246302      -1.35545193       0.00000000
Si       1.35827649      -1.35503478       1.35604584       0.00000000
Si      -1.35474156       1.35933534       1.35580553       0.00000000
Si       1.38331422       1.34661285      -1.36507470       0.00000000
Si       0.18223623      -2.42299089      -2.81393244       0.00000000
Si      -2.61845460       0.09296703      -2.64369891       0.00000000
Si       0.00078192      -2.71440270       2.71319025       0.00000000
Si      -2.71453302       0.00099369       2.71312159       0.00000000
Si       2.71235016      -2.71539639      -0.00401664       0.00000000
Si       2.71560816       2.71277370      -0.00250611       0.00000000
