10
Lattice="16.28999089631971 0.0 0.0 0.0 16.28999089631971 0.0 0.0 0.0 34.33025523377368" Properties=species:S:1:pos:R:3:initial_magmoms:R:1 pbc="T T T"
Si      -1.38660480       1.28392893      -1.38749237       0.00000000
Si       1.31636232      -1.44590040      -1.38508925       0.00000000
Si      -1.68187734      -0.91742022       1.48656954       0.00000000
Si       1.87115085       0.91111599       1.25394760       0.00000000
Si      -0.19965024      -0.59640948       3.37813333       0.00000000
Si      -2.56655466      -2.58023826      -0.02255499       0.00000000
Si      -0.02924055       2.63577087      -2.74717722       0.00000000
Si      -2.77817805       2.61009783       0.02643431       0.00000000
Si       3.54612123      -0.84703113       1.12067748       0.00000000
Si       2.68617213      -0.08188983      -2.74357254       0.00000000
