10
Lattice="16.28999089631971 0.0 0.0 0.0 16.28999089631971 0.0 0.0 0.0 34.33025523377368" Properties=species:S:1:pos:R:3:initial_magmoms:R:1 pbc="T T T"
Si      -1.20054042      -2.01403044      -0.07061737       0.00000000
Si      -1.51847235       1.80330300      -0.05101479       0.00000000
Si       0.87026067      -0.50650497      -2.19480310       0.00000000
Si       0.75272832       0.15936507       2.51136256       0.00000000
Si      -2.66854635      -1.18307754       1.63882431       0.00000000
Si       0.45911736      -3.77574507      -0.33149313       0.00000000
Si      -1.36164852      -0.53784693       3.53248225       0.00000000
Si      -0.36121446       3.76517286       0.60974000       0.00000000
Si      -1.00089018      -1.41762096      -3.44875071       0.00000000
Si       1.71872532       1.33252200      -3.41373383       0.00000000
