10
Lattice="16.28999089631971 0.0 0.0 0.0 16.28999089631971 0.0 0.0 0.0 34.33025523377368" Properties=species:S:1:pos:R:3:initial_magmoms:R:1 pbc="T T T"
Si       1.98325863       0.59777784       1.17984025       0.00000000
Si      -0.67631193      -1.89284913       1.30499470       0.00000000
Si      -1.76226849       1.60287084       0.33202117       0.00000000
Si      -0.02119329       0.53351379      -2.59804651       0.00000000
Si       0.52476606       1.87675461       2.75385244       0.00000000
Si      -2.20995027      -0.83232126       2.76347521       0.00000000
Si      -0.76530420       3.31560144       1.45466097       0.00000000
Si      -1.98340524      -3.12292332      -0.23399515       0.00000000
Si      -3.47700276       0.62310879       1.47522823       0.00000000
Si       2.76353334       2.65737141       0.08779388       0.00000000
