10
Lattice="16.28999089631971 0.0 0.0 0.0 16.28999089631971 0.0 0.0 0.0 34.33025523377368" Properties=species:S:1:pos:R:3:initial_magmoms:R:1 pbc="T T T"
Si      -0.99696429      -1.71273060      -1.12263980       0.00000000
Si       1.29007026      -1.43884683       1.29919147       0.00000000
Si      -1.45155303       1.30781007       1.29333129       0.00000000
Si       1.51808139       0.73524915      -1.63341870       0.00000000
Si      -1.86474888      -0.37409985      -2.79604778       0.00000000
Si       2.41126209       2.50034300      -0.14004692       0.00000000
Si       0.76530420      -3.31560144      -1.45466097       0.00000000
Si       2.62236420      -0.07268598       2.66176006       0.00000000
Si       0.33720300      -0.21642894      -3.72299952       0.00000000
Si      -0.09273897       2.64694811       2.66574238       0.00000000
