10
Lattice="16.28999089631971 0.0 0.0 0.0 16.28999089631971 0.0 0.0 0.0 34.33025523377368" Properties=species:S:1:pos:R:3:initial_magmoms:R:1 pbc="T T T"
Si       1.35793117       1.35633291       1.35745338       0.00000000
Si      -1.35616269      -1.35896478       1.35748771       0.00000000
Si      -1.35775911       1.35538321      -1.36019980       0.00000000
Si       1.35608552      -1.36036572      -1.36188199       0.00000000
Si      -2.71215858       2.71417772       0.00020598       0.00000000
Si      -2.71406451      -0.00132018       2.71507841       0.00000000
Si      -2.71487901      -2.71430907      -0.00089259       0.00000000
Si       0.00081969       2.71417772       2.71586801       0.00000000
Si       0.00064214      -2.71590549       2.71514707       0.00000000
Si       2.71610015      -0.00098644       2.71552471       0.00000000
