10
Lattice="16.28999089631971 0.0 0.0 0.0 16.28999089631971 0.0 0.0 0.0 34.33025523377368" Properties=species:S:1:pos:R:3:initial_magmoms:R:1 pbc="T T T"
Si      -1.29007026       1.43884683      -1.29919147       0.00000000
Si       1.33229394       1.36616085       1.36256859       0.00000000
Si      -1.38331422      -1.34661285       1.36507470       0.00000000
Si       1.45849257      -1.27897677      -1.57401218       0.00000000
Si      -2.28703455      -0.27388377      -2.42183127       0.00000000
Si      -0.52476606      -1.87675461      -2.75385244       0.00000000
Si       2.23876728       0.78061680      -2.66605856       0.00000000
Si       0.22801113       2.17409598      -2.93261018       0.00000000
Si       2.68889256       0.01332522       2.71943836       0.00000000
Si       2.70361872      -2.71202436      -0.03102084       0.00000000
