10
Lattice="16.28999089631971 0.0 0.0 0.0 16.28999089631971 0.0 0.0 0.0 34.33025523377368" Properties=species:S:1:pos:R:3:initial_magmoms:R:1 pbc="T T T"
Si      -1.35281934       1.35459495      -1.36061177       0.00000000
Si       1.36042677       1.35682668       1.36198498       0.00000000
Si       1.36228383      -1.36021500      -1.36006248       0.00000000
Si      -1.35141840      -1.36627488       1.36648224       0.00000000
Si       2.57007330      -0.08228079       2.77240997       0.00000000
Si      -2.71415835       2.71140613      -0.00226580       0.00000000
Si      -2.71112841      -0.00366525      -2.71717256       0.00000000
Si       0.00376299       2.71118497      -2.71717256       0.00000000
Si       2.72122821       2.70990666       0.00030897       0.00000000
Si      -2.71415835      -2.71925712      -0.00357035       0.00000000
