10
Lattice="16.28999089631971 0.0 0.0 0.0 16.28999089631971 0.0 0.0 0.0 34.33025523377368" Properties=species:S:1:pos:R:3:initial_magmoms:R:1 pbc="T T T"
Si      -2.29892625      -0.40671243      -0.15781627       0.00000000
Si       1.05938757      -1.87929585      -0.90803576       0.00000000
Si       0.08957871       0.01765836       2.35745994       0.00000000
Si       0.77353065       1.47764961      -1.69364976       0.00000000
Si      -1.88195112      -1.38225537       2.51682108       0.00000000
Si       3.04974864       1.21381677      -1.02005544       0.00000000
Si       3.29699826      -1.19508327      -0.64286872       0.00000000
Si       0.38825586      -1.72690290      -3.15962114       0.00000000
Si      -1.11865059       2.98282932      -1.75746974       0.00000000
Si       2.33078949      -0.29796039       2.95580230       0.00000000
