10
Lattice="16.28999089631971 0.0 0.0 0.0 16.28999089631971 0.0 0.0 0.0 34.33025523377368" Properties=species:S:1:pos:R:3:initial_magmoms:R:1 pbc="T T T"
Si       0.39397365      -1.13494059       1.99328439       0.00000000
Si       0.14494842      -1.74019554      -1.59604879       0.00000000
Si      -1.80532296       1.51076948       0.31813865       0.00000000
Si       1.84792131       1.04881766      -1.09053550       0.00000000
Si      -2.13126957      -1.47636270      -2.26964310       0.00000000
Si       2.06899290      -0.75256542      -2.66296506       0.00000000
Si      -0.81358776       2.90510063       1.95438819       0.00000000
Si       2.64287331      -1.90133622       1.77415425       0.00000000
Si       3.79324053       1.09304175       0.25404403       0.00000000
Si       0.12513978       0.11461644       3.98553888       0.00000000
