10
Lattice="16.28999089631971 0.0 0.0 0.0 16.28999089631971 0.0 0.0 0.0 34.33025523377368" Properties=species:S:1:pos:R:3:initial_magmoms:R:1 pbc="T T T"
Si       1.16890524       1.42892622      -1.58111512       0.00000000
Si      -0.07915311       1.87398531       1.57294451       0.00000000
Si      -1.61562591      -1.22256450      -1.42892901       0.00000000
Si       0.10423971      -2.28861468       1.46051286       0.00000000
Si      -0.53605503       0.78148017       3.55496858       0.00000000
Si       0.59882040      -1.26364788       3.46646513       0.00000000
Si      -3.14525691      -2.20436280       0.11521240       0.00000000
Si       2.51976978       0.06441066      -2.92123171       0.00000000
Si       2.25857592       2.65745286       1.76718521       0.00000000
Si      -0.21672216      -2.62681626      -2.90918178       0.00000000
