10
Lattice="16.28999089631971 0.0 0.0 0.0 16.28999089631971 0.0 0.0 0.0 34.33025523377368" Properties=species:S:1:pos:R:3:initial_magmoms:R:1 pbc="T T T"
Si       1.36199061       1.32698340       1.37827126       0.00000000
Si      -1.35529542      -1.38142458       1.37198882       0.00000000
Si       1.05801921      -1.51423695      -1.50026389       0.00000000
Si      -1.22702796       1.57493349      -1.44077639       0.00000000
Si      -2.23544412      -0.30113694      -2.60657380       0.00000000
Si      -0.96451461      -2.30073444      -2.56841330       0.00000000
Si       2.72822816       2.67867873       0.00052525       0.00000000
Si       0.00312768       2.69128719       2.73397380       0.00000000
Si      -2.71743264       2.71709055       0.00315495       0.00000000
Si       2.70402597      -2.74089024      -0.01748441       0.00000000
