10
Lattice="16.28999089631971 0.0 0.0 0.0 16.28999089631971 0.0 0.0 0.0 34.33025523377368" Properties=species:S:1:pos:R:3:initial_magmoms:R:1 pbc="T T T"
Si      -1.35705474       1.35410625       1.35494727       0.00000000
Si       1.35786924       1.35462753      -1.35779668       0.00000000
Si      -1.35698958      -1.36026387      -1.35786534       0.00000000
Si       1.35739683      -1.36052451       1.36098940       0.00000000
Si      -2.71414206       2.71145421       0.00051495       0.00000000
Si      -0.01342296       2.70505224       2.72108621       0.00000000
Si       0.00047241       2.71218726      -2.71525006       0.00000000
Si       2.71547784       2.71293660      -0.00051495       0.00000000
Si       2.71533123      -0.00096111      -2.71446047       0.00000000
Si      -2.71404432      -2.71697000      -0.00034330       0.00000000
