10
Lattice="16.28999089631971 0.0 0.0 0.0 16.28999089631971 0.0 0.0 0.0 34.33025523377368" Properties=species:S:1:pos:R:3:initial_magmoms:R:1 pbc="T T T"
Si      -0.45690192      -1.09250514       1.98202406       0.00000000
Si      -1.65965778       1.76171463       0.26087576       0.00000000
Si       0.07915311      -1.87398531      -1.57294451       0.00000000
Si       2.33772903       0.78346755       0.19424069       0.00000000
Si       2.08611369       1.51109298      -1.99658010       0.00000000
Si       1.24805835      -0.44505909      -3.15405963       0.00000000
Si       0.84654243       0.03544704       3.62328582       0.00000000
Si       0.67797351      -3.13763319       1.89352062       0.00000000
Si       0.41114331       3.26924010      -1.86330997       0.00000000
Si      -0.45911736       3.77574507       0.33149313       0.00000000
