10
Lattice="16.28999089631971 0.0 0.0 0.0 16.28999089631971 0.0 0.0 0.0 34.33025523377368" Properties=species:S:1:pos:R:3:initial_magmoms:R:1 pbc="T T T"
Si      -0.16915536      -1.79750376      -1.47352404       0.00000000
Si      -0.00118917      -0.62692065       2.27232086       0.00000000
Si      -1.81099188       1.57032342      -0.05918539       0.00000000
Si       1.44017676       1.95282891      -0.99265988       0.00000000
Si       2.15305649       1.97193708       1.40149912       0.00000000
Si       0.28375551       1.65262050       2.81329733       0.00000000
Si      -0.71374635       3.10344048      -1.50091960       0.00000000
Si      -0.23719869      -0.61063065      -3.45904979       0.00000000
Si       2.01754649      -2.63603151      -1.31557045       0.00000000
Si      -2.01911292       2.04462306       2.23133052       0.00000000
