10
Lattice="16.28999089631971 0.0 0.0 0.0 16.28999089631971 0.0 0.0 0.0 34.33025523377368" Properties=species:S:1:pos:R:3:initial_magmoms:R:1 pbc="T T T"
Si      -0.13038516      -2.20174011       0.77538358       0.00000000
Si       0.20812104      -0.47429964      -2.29051591       0.00000000
Si      -1.36777356       1.51832574       1.17914194       0.00000000
Si       2.30286843      -0.39200256       0.58196681       0.00000000
Si       2.01792375      -2.67154371       0.04099035       0.00000000
Si       2.01911292      -2.04462306      -2.23133052       0.00000000
Si      -0.76401729       3.56384475       0.24580476       0.00000000
Si      -1.98970947      -3.13185024      -0.13351044       0.00000000
Si      -0.76743819       1.14416073       3.49516524       0.00000000
Si      -0.42435450      -2.36555235       3.08309895       0.00000000
