10
Lattice="16.28999089631971 0.0 0.0 0.0 16.28999089631971 0.0 0.0 0.0 34.33025523377368" Properties=species:S:1:pos:R:3:initial_magmoms:R:1 pbc="T T T"
Si      -1.35734796       1.35848826      -1.36222529       0.00000000
Si       1.35909099      -1.35612621      -1.36311788       0.00000000
Si      -1.36980981      -1.36401057       1.35848329       0.00000000
Si       1.37007045       1.38676770       1.36507470       0.00000000
Si       0.02189376      -2.72129337       2.70677049       0.00000000
Si      -2.71344159      -2.71495656      -0.00765565       0.00000000
Si       2.71343573       2.71549413      -0.00727802       0.00000000
Si      -2.68617213       0.08188983       2.74357254       0.00000000
Si      -2.71541268       2.71766070      -0.00360468       0.00000000
Si      -2.71365336       0.00066789      -2.72070858       0.00000000
