10
Lattice="16.28999089631971 0.0 0.0 0.0 16.28999089631971 0.0 0.0 0.0 34.33025523377368" Properties=species:S:1:pos:R:3:initial_magmoms:R:1 pbc="T T T"
Si      -1.18534185       1.01335203       1.83488451       0.00000000
Si       1.29102160       1.47321873      -1.43795787       0.00000000
Si       1.62868072      -1.22517090       1.37866949       0.00000000
Si      -1.41356117      -1.41434667      -1.46645200       0.00000000
Si       0.08888801      -3.02539835       1.44142523       0.00000000
Si       2.85803815      -2.62289037      -0.20302924       0.00000000
Si      -1.83936973      -3.43402974      -0.21665836       0.00000000
Si       2.18941510       3.34011789      -0.05664495       0.00000000
Si       2.63585884      -0.03863988      -3.00956351       0.00000000
Si      -2.44490161      -0.65865357       3.11612468       0.00000000
