10
Lattice="16.28999089631971 0.0 0.0 0.0 16.28999089631971 0.0 0.0 0.0 34.33025523377368" Properties=species:S:1:pos:R:3:initial_magmoms:R:1 pbc="T T T"
Si      -1.35470898      -1.35151614      -1.37080786       0.00000000
Si       1.35376416       1.36309833      -1.37005259       0.00000000
Si      -1.46613258       1.25995005       1.37942476       0.00000000
Si       1.44414224      -1.32688566       1.43524578       0.00000000
Si       0.95661396       2.06012204       2.81456755       0.00000000
Si      -0.20712735      -2.35861281       2.78813324       0.00000000
Si       2.66496159       0.35240157       2.61322049       0.00000000
Si      -2.72810259      -2.70656721      -0.00274642       0.00000000
Si      -0.00026064      -2.71150308      -2.73203757       0.00000000
Si       2.71476012       0.00461007      -2.72905083       0.00000000
