10
Lattice="16.28999089631971 0.0 0.0 0.0 16.28999089631971 0.0 0.0 0.0 34.33025523377368" Properties=species:S:1:pos:R:3:initial_magmoms:R:1 pbc="T T T"
Si       0.59401485      -0.69520833       2.18199791       0.00000000
Si      -1.05006969       2.12075505       0.30255271       0.00000000
Si       1.74777039       0.37408356      -1.59831459       0.00000000
Si      -1.21790556      -2.03652693      -0.44684285       0.00000000
Si      -0.54501453       3.31759601      -1.71064324       0.00000000
Si       0.70231077       0.55618947      -3.67886654       0.00000000
Si      -0.13893741       2.98589903       2.38718996       0.00000000
Si       3.29233022      -1.37880189      -1.42886035       0.00000000
Si      -1.33002963      -1.68283845       3.24891418       0.00000000
Si       0.22641471      -3.90246498      -0.02255499       0.00000000
