10
Lattice="16.28999089631971 0.0 0.0 0.0 16.28999089631971 0.0 0.0 0.0 34.33025523377368" Properties=species:S:1:pos:R:3:initial_magmoms:R:1 pbc="T T T"
Si      -1.04545962       0.18210591      -2.08055195       0.00000000
Si       1.54455983      -1.75288545       0.16945423       0.00000000
Si       1.41812662       1.88607968      -0.08589435       0.00000000
Si      -1.74777039      -0.37408356       1.59831459       0.00000000
Si       2.49891273       1.32014553      -2.02692806       0.00000000
Si       3.09639410      -1.00299159      -1.49082650       0.00000000
Si      -1.91780541      -2.02553118      -2.36604251       0.00000000
Si      -0.03487689       3.68689031      -0.35222862       0.00000000
Si      -2.29278492       2.94351245      -0.11232866       0.00000000
Si      -2.79784008       1.74667149       1.90086729       0.00000000
