10
Lattice="16.28999089631971 0.0 0.0 0.0 16.28999089631971 0.0 0.0 0.0 34.33025523377368" Properties=species:S:1:pos:R:3:initial_magmoms:R:1 pbc="T T T"
Si      -0.14494842       1.74019554       1.59604879       0.00000000
Si      -2.27621799       0.26383284      -0.67359431       0.00000000
Si       1.92404448       0.98763012      -1.06691627       0.00000000
Si       0.24724962      -2.40890004       0.37718673       0.00000000
Si       1.70297289       2.78901320       0.50551329       0.00000000
Si      -3.04974864      -1.21381677       1.02005544       0.00000000
Si      -2.07430344      -0.74730375      -2.79623518       0.00000000
Si       0.24902523       0.60525495       3.58933318       0.00000000
Si      -1.99036107      -3.09311262       0.11201969       0.00000000
Si       0.11212407      -0.35368848      -3.69575703       0.00000000
