10
Lattice="16.28999089631971 0.0 0.0 0.0 16.28999089631971 0.0 0.0 0.0 34.33025523377368" Properties=species:S:1:pos:R:3:initial_magmoms:R:1 pbc="T T T"
Si       0.28186587      -2.35102167      -0.14810080       0.00000000
Si       0.49083399       0.48545829       2.27129096       0.00000000
Si      -2.24889966       0.76639563       0.21913014       0.00000000
Si       1.54805853       0.72211941      -1.66759308       0.00000000
Si       3.31119404      -0.57803436      -0.87755047       0.00000000
Si      -1.93065822      -2.81227302      -0.71139195       0.00000000
Si      -3.21688404      -1.35063648       0.60565470       0.00000000
Si       1.15036722       2.99437797      -1.52011022       0.00000000
Si       1.90228008      -1.23676938       2.80509239       0.00000000
Si      -2.64287331       1.90133622      -1.77415425       0.00000000
