10
Lattice="16.28999089631971 0.0 0.0 0.0 16.28999089631971 0.0 0.0 0.0 34.33025523377368" Properties=species:S:1:pos:R:3:initial_magmoms:R:1 pbc="T T T"
Si      -1.23031854      -0.33821298      -1.97690885       0.00000000
Si      -1.35974259      -0.23060124       1.94004951       0.00000000
Si       2.06107337      -1.21963230      -0.28628016       0.00000000
Si       1.33405326       2.63850663      -0.65090200       0.00000000
Si       0.44774694       0.43127775       3.23633011       0.00000000
Si       0.74557701      -0.23071527      -3.21297038       0.00000000
Si       3.87580544       0.31970754      -0.22173924       0.00000000
Si       1.95722967       1.75198756      -2.88566555       0.00000000
Si      -3.37049874       1.16287794       1.67349789       0.00000000
Si       2.07346843      -3.16617327       1.13489021       0.00000000
