10
Lattice="16.28999089631971 0.0 0.0 0.0 16.28999089631971 0.0 0.0 0.0 34.33025523377368" Properties=species:S:1:pos:R:3:initial_magmoms:R:1 pbc="T T T"
Si      -1.86930098      -0.31931658       1.41179821       0.00000000
Si       0.81068814       2.17181538       0.58158918       0.00000000
Si       1.54790838      -1.90327473       0.15012629       0.00000000
Si      -0.71287972      -0.01910817      -2.39415901       0.00000000
Si      -2.15305649      -1.97193708      -1.40149912       0.00000000
Si       1.43873280       1.31207805      -2.78621074       0.00000000
Si      -2.15424566      -2.59885773       0.87082174       0.00000000
Si       2.06503443      -1.47411468       2.78329267       0.00000000
Si       2.42748693       2.76169257      -1.05586192       0.00000000
Si       1.54227204       2.20004595       2.83904503       0.00000000
