10
Lattice="16.28999089631971 0.0 0.0 0.0 16.28999089631971 0.0 0.0 0.0 34.33025523377368" Properties=species:S:1:pos:R:3:initial_magmoms:R:1 pbc="T T T"
Si       1.10636793      -1.81721466       1.04789730       0.00000000
Si      -1.76500521      -0.04108338       1.58859912       0.00000000
Si       1.23272946       2.02399992       0.16639884       0.00000000
Si      -0.51712605      -0.42916005      -2.63316638       0.00000000
Si       1.74706992       0.42112908      -3.04907765       0.00000000
Si      -1.17876069      -2.79595044      -1.97536399       0.00000000
Si       2.30778801      -2.74571208      -0.73806657       0.00000000
Si      -0.52276239       3.67416063       0.05575237       0.00000000
Si      -2.06503443       1.47411468      -2.78329267       0.00000000
Si      -2.58485810      -2.21249151       1.69903961       0.00000000
