10
Lattice="16.28999089631971 0.0 0.0 0.0 16.28999089631971 0.0 0.0 0.0 34.33025523377368" Properties=species:S:1:pos:R:3:initial_magmoms:R:1 pbc="T T T"
Si      -1.30965803       1.88519283      -0.37728972       0.00000000
Si      -1.07860067      -1.97436429      -0.71942523       0.00000000
Si       0.77558971       0.14727789       2.22638696       0.00000000
Si      -0.78806852       0.95003280      -2.79005573       0.00000000
Si       2.10470058       2.00834523       1.76437012       0.00000000
Si       0.79106846      -3.41643654      -0.69906738       0.00000000
Si      -3.23300204       1.47997908       1.10979478       0.00000000
Si      -2.86168778      -2.26841508       0.81678589       0.00000000
Si      -0.16708653       4.00364217      -0.29651058       0.00000000
Si       2.88380241      -2.51673984      -1.51159631       0.00000000
