10
Lattice="16.28999089631971 0.0 0.0 0.0 16.28999089631971 0.0 0.0 0.0 34.33025523377368" Properties=species:S:1:pos:R:3:initial_magmoms:R:1 pbc="T T T"
Si       1.32911087       1.86106734      -0.46201683       0.00000000
Si      -0.77558971      -0.14727789      -2.22638696       0.00000000
Si       1.37715008      -1.74553866       0.95184119       0.00000000
Si      -1.39301508       1.10982141       1.68173715       0.00000000
Si       2.40803015       1.83267387       1.57685816       0.00000000
Si      -0.77446244      -3.07672488       1.34389292       0.00000000
Si       2.36590421      -0.29592414       2.68219001       0.00000000
Si      -2.92838555      -1.92611331       0.83563321       0.00000000
Si      -3.53233730       0.40610970       1.07659741       0.00000000
Si      -2.08524773       1.73791494      -2.60367667       0.00000000
