10
Lattice="16.28999089631971 0.0 0.0 0.0 16.28999089631971 0.0 0.0 0.0 34.33025523377368" Properties=species:S:1:pos:R:3:initial_magmoms:R:1 pbc="T T T"
Si      -1.61679879      -0.58987719       1.63745110       0.00000000
Si       0.04212594       2.12859801      -1.10533185       0.00000000
Si       2.22669639      -0.05224203       0.96066407       0.00000000
Si      -0.98875413      -1.44961452      -1.73034882       0.00000000
Si      -2.36590421       0.29592414      -2.68219001       0.00000000
Si       3.34085094      -1.02350070      -0.88057154       0.00000000
Si      -3.23029723       1.09056663       1.30238762       0.00000000
Si       3.01037571       2.22772266       0.33492616       0.00000000
Si       2.25681660       2.43116847      -1.85026447       0.00000000
Si      -2.42748693      -2.76169257       1.05586192       0.00000000
