10
Lattice="16.28999089631971 0.0 0.0 0.0 16.28999089631971 0.0 0.0 0.0 34.33025523377368" Properties=species:S:1:pos:R:3:initial_magmoms:R:1 pbc="T T T"
Si      -1.61349844       1.68044382      -0.33506348       0.00000000
Si       0.73158390       0.02823057       2.25745585       0.00000000
Si       1.61679879       0.58987719      -1.63745110       0.00000000
Si      -0.81068814      -2.17181538      -0.58158918       0.00000000
Si       0.62804466      -0.85973733      -3.36779992       0.00000000
Si      -0.50502258       3.69895401       0.32788845       0.00000000
Si      -2.67998912      -2.49113196       0.83020903       0.00000000
Si       2.48707575      -1.62193014       2.36810233       0.00000000
Si      -1.33196325      -0.35847774       3.57048586       0.00000000
Si       3.84349518       0.53763516      -0.67678703       0.00000000
