10
Lattice="16.28999089631971 0.0 0.0 0.0 16.28999089631971 0.0 0.0 0.0 34.33025523377368" Properties=species:S:1:pos:R:3:initial_magmoms:R:1 pbc="T T T"
Si       1.35189081      -1.35801585      -1.35827731       0.00000000
Si       1.35659862       1.35624024       1.35848329       0.00000000
Si      -1.35969535      -1.35899325       1.35762503       0.00000000
Si      -1.36174137       1.35417141      -1.36164167       0.00000000
Si       0.01987380       2.69811270      -2.72417594       0.00000000
Si       2.71316466       2.71448530       0.00281508       0.00000000
Si       2.71319724      -0.00140094       2.71531872       0.00000000
Si      -0.00172674       2.71355069       2.71576502       0.00000000
Si       2.70976005       0.01430262      -2.72036871       0.00000000
Si       2.71572219      -2.71502172       0.00072094       0.00000000
