10
Lattice="16.28999089631971 0.0 0.0 0.0 16.28999089631971 0.0 0.0 0.0 34.33025523377368" Properties=species:S:1:pos:R:3:initial_magmoms:R:1 pbc="T T T"
Si      -1.35751547      -1.35738054      -1.35834597       0.00000000
Si       1.35794254       1.35753851      -1.35796833       0.00000000
Si       1.35685112      -1.35747828       1.36171033       0.00000000
Si      -1.36099596       1.35848826       1.35899824       0.00000000
Si      -2.71383159       2.71567399      -0.00147620       0.00000000
Si      -2.71432029      -0.00043983      -2.71600533       0.00000000
Si      -0.00022643       2.71485786      -2.71603966       0.00000000
Si      -0.00002606      -2.71500543      -2.71610832       0.00000000
Si      -2.71502076      -2.71611315      -0.00298673       0.00000000
Si       2.71626790       0.00022806      -2.71525006       0.00000000
