10
Lattice="10.86 0.0 0.0 0.0 10.86 0.0 0.0 0.0 10.86" Properties=species:S:1:pos:R:3:initial_magmoms:R:1 pbc="T T T"
Si       1.27850436      -1.27850436      -1.35672894       0.00000000
Si      -1.52537388       1.52537388      -1.38701748       0.00000000
Si       2.58229080      -2.58229080       0.01285824       0.00000000
Si       2.58229080       0.13270920      -2.70214176       0.00000000
Si      -0.13270920      -2.58229080      -2.70214176       0.00000000
Si       2.58229080       0.13270920       2.72785824       0.00000000
Si      -0.13270920      -2.58229080       2.72785824       0.00000000
Si       2.58229080       2.84770920       0.01285824       0.00000000
Si      -2.84770920      -2.58229080       0.01285824       0.00000000
Si      -0.13270920       2.84770920      -2.70214176       0.00000000
