10
Lattice="16.28999089631971 0.0 0.0 0.0 16.28999089631971 0.0 0.0 0.0 34.56409401068381" Properties=species:S:1:pos:R:3:initial_magmoms:R:1 pbc="T T T"
Si      -1.09172322      -1.76897997       1.08555511       0.00000000
Si       1.55763351      -0.28308762      -1.73238792       0.00000000
Si      -1.50218235       1.10815983      -1.45805256       0.00000000
Si       1.53652167       1.01224431       1.53903627       0.00000000
Si      -0.28380438       3.05893620      -1.89594531       0.00000000
Si       1.79426205       2.06034291      -2.38257346       0.00000000
Si       3.30340023      -1.56126618      -0.79977902       0.00000000
Si       2.52648126      -2.57116473       1.23224520       0.00000000
Si       0.42785685      -3.59342739       1.31215743       0.00000000
Si       0.57173013      -1.34260551      -3.57175178       0.00000000
