10
Lattice="16.28999089631971 0.0 0.0 0.0 16.28999089631971 0.0 0.0 0.0 34.56409401068381" Properties=species:S:1:pos:R:3:initial_magmoms:R:1 pbc="T T T"
Si      -1.96165062      -0.14164155       1.20611473       0.00000000
Si      -0.80275328       1.13676900      -1.94958881       0.00000000
Si       0.05930049      -2.31314742      -0.71758556       0.00000000
Si       2.47713722       1.49847542      -0.93319650       0.00000000
Si       0.80500130       2.82931955      -1.83995144       0.00000000
Si       0.97203896      -1.88936307      -2.85005309       0.00000000
Si      -1.23682707       1.09630627       3.16787011       0.00000000
Si       2.17909538       2.33570485       1.72481838       0.00000000
Si       2.81556197      -0.45771642      -2.34213345       0.00000000
Si      -0.60631543      -0.41249538      -3.72808526       0.00000000
