10
Lattice="16.28999089631971 0.0 0.0 0.0 16.28999089631971 0.0 0.0 0.0 34.56409401068381" Properties=species:S:1:pos:R:3:initial_magmoms:R:1 pbc="T T T"
Si      -1.36045935       1.35347094       1.35881899       0.00000000
Si       1.35617508      -1.36049193       1.35830053       0.00000000
Si       1.34951247       1.34328969      -1.38582739       0.00000000
Si      -1.36682874      -1.35117405      -1.36784368       0.00000000
Si      -2.71599912       2.70974376      -0.00120974       0.00000000
Si       2.71282257      -2.71327054      -0.00279969       0.00000000
Si      -0.00073305       2.71220355       2.71549500       0.00000000
Si       2.71730232       2.71215468       0.00051846       0.00000000
Si       2.71417464      -0.00234576       2.71549500       0.00000000
Si      -2.71632492      -0.00270414       2.71580608       0.00000000
