10
Lattice="16.28999089631971 0.0 0.0 0.0 16.28999089631971 0.0 0.0 0.0 34.56409401068381" Properties=species:S:1:pos:R:3:initial_magmoms:R:1 pbc="T T T"
Si      -1.74855231      -0.93719628      -1.30358553       0.00000000
Si       1.03198779       1.74180825      -1.34488965       0.00000000
Si      -1.16481645       0.53696727       2.07080516       0.00000000
Si       1.81288152      -1.73104056       0.12007573       0.00000000
Si      -1.24524018       2.72668536       1.35885355       0.00000000
Si       1.93588731       1.72157607       2.08860568       0.00000000
Si       1.18912113      -2.06126004       2.61007445       0.00000000
Si      -0.37263375      -2.29364992      -2.69389243       0.00000000
Si       2.36073051       0.45188460      -2.73637172       0.00000000
Si       0.40687533      -0.10168218       3.66448729       0.00000000
