10
Lattice="16.28999089631971 0.0 0.0 0.0 16.28999089631971 0.0 0.0 0.0 34.56409401068381" Properties=species:S:1:pos:R:3:initial_magmoms:R:1 pbc="T T T"
Si      -0.81925668       1.72219509       1.39849859       0.00000000
Si       1.33975476       0.85545306      -1.76059224       0.00000000
Si       1.75681134      -1.17588876       1.10010660       0.00000000
Si      -1.60464645      -1.02172509      -1.43745235       0.00000000
Si       0.17730036       3.49321131       0.21685525       0.00000000
Si       2.43735867      -2.43542016      -0.71606474       0.00000000
Si      -2.59405218       0.81935442      -2.45450138       0.00000000
Si      -0.23193702       1.49410251      -3.35427438       0.00000000
Si       0.64653381      -2.58863608       2.55287085       0.00000000
Si       2.12200056      -1.10412480      -2.81500508       0.00000000
