10
Lattice="16.28999089631971 0.0 0.0 0.0 16.28999089631971 0.0 0.0 0.0 34.56409401068381" Properties=species:S:1:pos:R:3:initial_magmoms:R:1 pbc="T T T"
Si      -1.28643759      -1.32501231      -1.52009656       0.00000000
Si       1.19091303      -1.43804862       1.55154848       0.00000000
Si       1.90594629       0.71307846      -1.41356997       0.00000000
Si      -1.49599215       1.27379655       1.55981276       0.00000000
Si       2.57598657       2.47313151       0.12221179       0.00000000
Si       0.62338572      -1.90076607      -2.98827640       0.00000000
Si       2.47072059      -2.93904180       0.10139383       0.00000000
Si      -2.98768374       2.48337792       0.19940728       0.00000000
Si       2.55870288      -0.06918363       2.93789433       0.00000000
Si      -2.81031822      -2.71841004       0.08864313       0.00000000
