10
Lattice="16.28999089631971 0.0 0.0 0.0 16.28999089631971 0.0 0.0 0.0 34.56409401068381" Properties=species:S:1:pos:R:3:initial_magmoms:R:1 pbc="T T T"
Si       1.81201815       1.16786268      -0.95486819       0.00000000
Si       0.81651996      -0.85156694       2.04750895       0.00000000
Si      -1.85457415       1.07975822       1.02555181       0.00000000
Si      -0.25086600      -1.99404980      -1.31205374       0.00000000
Si       0.82261242       3.00894219      -1.97191723       0.00000000
Si      -0.85400325       2.19414897       2.88413331       0.00000000
Si      -0.40185801      -2.80234331       2.48540170       0.00000000
Si       2.89458639      -1.85016023       1.56088079       0.00000000
Si      -0.24221601      -3.78352259       0.26261813       0.00000000
Si      -3.41813789      -0.63116324       1.62648348       0.00000000
