10
Lattice="16.28999089631971 0.0 0.0 0.0 16.28999089631971 0.0 0.0 0.0 34.56409401068381" Properties=species:S:1:pos:R:3:initial_magmoms:R:1 pbc="T T T"
Si       0.77598555      -1.91403428       1.11659368       0.00000000
Si       2.10064600       1.07287569      -0.10856588       0.00000000
Si      -0.61645174      -0.61634844      -2.23543403       0.00000000
Si      -1.91090401       0.98968266       1.08272085       0.00000000
Si      -2.94564481      -0.61419816      -0.70192801       0.00000000
Si       1.28003399       3.17734821      -0.53194170       0.00000000
Si       1.77655645      -0.79964352       2.97517518       0.00000000
Si      -2.23826785      -0.54221265       2.85026048       0.00000000
Si       2.83159459       1.18550475       2.15078652       0.00000000
Si      -0.43507888       1.51106040      -3.46405000       0.00000000
