10
Lattice="16.28999089631971 0.0 0.0 0.0 16.28999089631971 0.0 0.0 0.0 34.56409401068381" Properties=species:S:1:pos:R:3:initial_magmoms:R:1 pbc="T T T"
Si      -2.14654959      -0.57723615      -0.67807878       0.00000000
Si      -0.36427698       1.98215091       1.22671495       0.00000000
Si       1.13156856       0.74767842      -1.97914113       0.00000000
Si       0.65511864      -1.79028729       1.49724826       0.00000000
Si       1.60409259      -0.33355404       3.14028795       0.00000000
Si      -2.72793969       1.46227185      -1.73950813       0.00000000
Si      -0.35950401       1.02095946       3.38355018       0.00000000
Si      -0.72308052       1.96504641      -2.96387272       0.00000000
Si       1.73434743       3.00441357       1.14680272       0.00000000
Si       1.82982312      -3.16601037      -0.05678884       0.00000000
