10
Lattice="16.28999089631971 0.0 0.0 0.0 16.28999089631971 0.0 0.0 0.0 34.56409401068381" Properties=species:S:1:pos:R:3:initial_magmoms:R:1 pbc="T T T"
Si       1.44316368      -1.43729928       1.28042758       0.00000000
Si      -2.34113364       0.03795570      -0.59025136       0.00000000
Si       0.88757694       2.12242410      -0.74136567       0.00000000
Si      -1.60352244       0.97542891       1.52953114       0.00000000
Si      -1.17939600      -1.74298113      -2.43203471       0.00000000
Si       2.97748620       1.45314945      -1.75253880       0.00000000
Si      -0.99880506       2.93237919      -2.18400263       0.00000000
Si      -0.25808247       2.37109095       2.99993142       0.00000000
Si       2.72960127      -0.11228697       2.80052414       0.00000000
Si       3.35298699      -2.01305304      -0.18775226       0.00000000
