10
Lattice="16.28999089631971 0.0 0.0 0.0 16.28999089631971 0.0 0.0 0.0 34.56409401068381" Properties=species:S:1:pos:R:3:initial_magmoms:R:1 pbc="T T T"
Si       0.92828565      -1.95678738       0.95690748       0.00000000
Si       1.36568844       1.29068928      -1.44332824       0.00000000
Si      -1.37101527       1.23637842       1.52085555       0.00000000
Si      -1.37358909      -1.37692854      -1.60035301       0.00000000
Si      -2.56508856       2.50957224      -0.10542055       0.00000000
Si      -1.00209564      -3.32374644       1.07000126       0.00000000
Si       2.84167647       2.52908766      -0.06584464       0.00000000
Si      -0.11222181       2.55067191      -2.96746739       0.00000000
Si       2.58237225      -0.16394256      -2.98900083       0.00000000
Si       2.69143380      -2.92004766      -0.23648766       0.00000000
