10
Lattice="16.28999089631971 0.0 0.0 0.0 16.28999089631971 0.0 0.0 0.0 34.56409401068381" Properties=species:S:1:pos:R:3:initial_magmoms:R:1 pbc="T T T"
Si      -2.01198604      -1.12229045      -0.41974659       0.00000000
Si       0.86325597       0.55217073      -2.10612968       0.00000000
Si       1.76834466      -1.37300984       0.91677854       0.00000000
Si      -0.59549724       2.00955069       1.38152761       0.00000000
Si      -2.26861056      -2.08431269       1.69720166       0.00000000
Si       3.13672095       1.06043013      -1.46617512       0.00000000
Si      -0.84256767       1.90737981      -3.01471653       0.00000000
Si       3.61449036       0.07291730       0.69228463       0.00000000
Si      -3.70404368       0.49261612      -0.40153130       0.00000000
Si      -0.85729383       1.15750224       3.58533548       0.00000000
