10
Lattice="16.28999089631971 0.0 0.0 0.0 16.28999089631971 0.0 0.0 0.0 34.56409401068381" Properties=species:S:1:pos:R:3:initial_magmoms:R:1 pbc="T T T"
Si      -0.54022527       1.90107558       1.25160111       0.00000000
Si      -1.91992311      -1.36555812       0.15768148       0.00000000
Si       0.16276968       0.44808903      -2.33231724       0.00000000
Si       2.04198408      -0.93551841       0.83316795       0.00000000
Si      -1.31714424       0.89117703       3.28362533       0.00000000
Si      -1.34998488      -3.23434692      -1.19263473       0.00000000
Si       3.41474238       0.94521096       1.23860500       0.00000000
Si       2.52884331       0.78925050      -2.79181256       0.00000000
Si      -3.77457219      -0.14819013      -0.82705010       0.00000000
Si       1.57946211      -2.12885865       2.88026213       0.00000000
