10
Lattice="16.28999089631971 0.0 0.0 0.0 16.28999089631971 0.0 0.0 0.0 34.56409401068381" Properties=species:S:1:pos:R:3:initial_magmoms:R:1 pbc="T T T"
Si      -1.94157252      -1.30811958      -0.25442644       0.00000000
Si      -0.39939822       2.02566150       1.17113585       0.00000000
Si       0.64770669       0.50513661      -2.23142459       0.00000000
Si       1.72527390      -1.38872250       0.87028981       0.00000000
Si       2.80217322      -2.02632939      -1.11721584       0.00000000
Si       2.99156076       0.03025053      -2.23833741       0.00000000
Si      -2.73165381      -1.69748316       1.91592337       0.00000000
Si      -2.71031391       0.60818715       2.51218888       0.00000000
Si      -2.00191068       3.33117468       0.06442751       0.00000000
Si      -3.56162931      -0.18129141      -1.54740079       0.00000000
