10
Lattice="16.28999089631971 0.0 0.0 0.0 16.28999089631971 0.0 0.0 0.0 34.56409401068381" Properties=species:S:1:pos:R:3:initial_magmoms:R:1 pbc="T T T"
Si      -1.36283769      -1.34781831       1.37680615       0.00000000
Si       1.35951453       1.35897696       1.38133405       0.00000000
Si      -1.23450507       1.45870434      -1.44350452       0.00000000
Si       1.18824147      -1.57558509      -1.41629911       0.00000000
Si       2.70985779       2.70073166       0.01186932       0.00000000
Si      -2.70936909       2.72220399      -0.00375712       0.00000000
Si       2.71195920      -2.72953611      -0.00531596       0.00000000
Si       2.84776893      -0.41536242      -2.55861644       0.00000000
Si      -2.72707632      -2.71920825       0.00368799       0.00000000
Si      -0.00307881      -2.70945054       2.73825201       0.00000000
