10
Lattice="16.28999089631971 0.0 0.0 0.0 16.28999089631971 0.0 0.0 0.0 34.56409401068381" Properties=species:S:1:pos:R:3:initial_magmoms:R:1 pbc="T T T"
Si       0.94118733       0.10536372       2.16011883       0.00000000
Si      -0.54962460       2.17790199      -0.79079235       0.00000000
Si       1.85148882      -0.11104893      -1.59295629       0.00000000
Si      -1.85890077      -1.57990194       0.41072536       0.00000000
Si      -3.46141323      -0.27438876      -0.69598299       0.00000000
Si       1.21042845       3.39424046       0.20627863       0.00000000
Si       0.81529821      -2.15431992       2.83774827       0.00000000
Si      -1.00018971       1.92806226      -3.08685183       0.00000000
Si       0.96137064       0.74767842      -3.59560102       0.00000000
Si      -0.12826746       1.89038187       3.29216267       0.00000000
