10
Lattice="16.28999089631971 0.0 0.0 0.0 16.28999089631971 0.0 0.0 0.0 34.56409401068381" Properties=species:S:1:pos:R:3:initial_magmoms:R:1 pbc="T T T"
Si      -1.35664749       1.35277862       1.36110022       0.00000000
Si       1.35775521      -1.36289269       1.35930288       0.00000000
Si       1.36151820       1.35103558      -1.36766394       0.00000000
Si      -1.35720135      -1.38196492      -1.36548986       0.00000000
Si      -0.08350254       2.55556706      -2.83318235       0.00000000
Si       2.71467963       2.70980077       0.00114062       0.00000000
Si      -2.71282257       2.71327054       0.00279969       0.00000000
Si       0.00135207       2.71092479       2.71829469       0.00000000
Si      -2.70754461      -2.72371962       0.00397487       0.00000000
Si      -2.71357191      -0.00432499       2.71836382       0.00000000
