10
Lattice="16.28999089631971 0.0 0.0 0.0 16.28999089631971 0.0 0.0 0.0 34.56409401068381" Properties=species:S:1:pos:R:3:initial_magmoms:R:1 pbc="T T T"
Si      -1.81288152       1.73104056      -0.12007573       0.00000000
Si      -0.87716763      -1.99784537      -1.27233958       0.00000000
Si       1.93600134       0.96168015      -1.40461644       0.00000000
Si      -0.62376039      -0.33021948       2.48999872       0.00000000
Si      -2.18551527      -0.56260936      -2.81396816       0.00000000
Si       0.54784899       2.18292516      -2.85644745       0.00000000
Si      -1.78365726      -3.24388376       0.51607678       0.00000000
Si      -0.78089373       3.47284881      -1.46496538       0.00000000
Si       3.08420199      -1.66482008       1.73027951       0.00000000
Si      -3.56143383       0.79384428      -1.42366126       0.00000000
