10
Lattice="16.28999089631971 0.0 0.0 0.0 16.28999089631971 0.0 0.0 0.0 34.56409401068381" Properties=species:S:1:pos:R:3:initial_magmoms:R:1 pbc="T T T"
Si       2.11957335      -1.04611122       0.32027107       0.00000000
Si      -1.26519543      -1.88362084      -0.81415769       0.00000000
Si      -0.09407475       1.91806605      -1.46776507       0.00000000
Si       0.03082068       1.02312603       2.22513392       0.00000000
Si       2.36731167      -2.32190329      -1.63982523       0.00000000
Si      -3.41751168      -0.97538004      -1.06568074       0.00000000
Si       3.70568178       0.77543658       0.50470518       0.00000000
Si       1.38078927      -0.43191306       3.63420913       0.00000000
Si      -1.16991522       1.42469082      -3.53227956       0.00000000
Si       2.27284596      -2.28953832       2.35554432       0.00000000
