10
Lattice="16.28999089631971 0.0 0.0 0.0 16.28999089631971 0.0 0.0 0.0 34.56409401068381" Properties=species:S:1:pos:R:3:initial_magmoms:R:1 pbc="T T T"
Si      -1.76314815       0.96326028       1.19339514       0.00000000
Si       1.26640089       1.45122723      -1.38024874       0.00000000
Si      -1.41630147      -1.38857589      -1.39725428       0.00000000
Si       1.73169216      -0.19919412       1.74752701       0.00000000
Si      -0.51240195      -1.40880807       2.03624104       0.00000000
Si      -1.05282270       0.79511490       3.39270967       0.00000000
Si       2.64104883       2.70115893       0.07365613       0.00000000
Si       2.60123607       0.02985957      -2.76212199       0.00000000
Si      -0.08755875      -2.67849954      -2.78873636       0.00000000
Si      -0.10906155       2.75610510      -2.75251316       0.00000000
