10
Lattice="16.28999089631971 0.0 0.0 0.0 16.28999089631971 0.0 0.0 0.0 34.56409401068381" Properties=species:S:1:pos:R:3:initial_magmoms:R:1 pbc="T T T"
Si       1.34996859      -1.45503909       1.40907521       0.00000000
Si      -0.03082068      -1.02312603      -2.22513392       0.00000000
Si      -1.55874123       1.24225911       1.42929521       0.00000000
Si       2.08875267      -2.06923725      -1.90486285       0.00000000
Si       0.01008351       2.43139653       2.78010366       0.00000000
Si      -0.12489543       0.89494002      -3.69289900       0.00000000
Si      -2.65079025      -0.38951019       2.74434017       0.00000000
Si       2.24202528      -3.31266435       0.13041040       0.00000000
Si       2.89745343      -0.22915143       2.79377723       0.00000000
Si       3.67486110      -0.24768945      -1.72042874       0.00000000
