10
Lattice="16.28999089631971 0.0 0.0 0.0 16.28999089631971 0.0 0.0 0.0 34.56409401068381" Properties=species:S:1:pos:R:3:initial_magmoms:R:1 pbc="T T T"
Si       1.35567661      -1.35565380       1.36092740       0.00000000
Si      -1.35870746       1.35944937       1.35850791       0.00000000
Si      -1.36425559      -1.36383138      -1.36609819       0.00000000
Si       1.36576012       1.36161594      -1.37218493       0.00000000
Si      -0.09756733       2.57782734      -2.79881871       0.00000000
Si       2.70794209      -2.71022594      -0.00114062       0.00000000
Si      -2.71448482      -2.71286981       0.00107149       0.00000000
Si       2.71331779       2.71448415       0.00006913       0.00000000
Si      -0.00151986      -2.71250654       2.71701582       0.00000000
Si       2.71299199       0.00203625       2.71708495       0.00000000
