10
Lattice="16.28999089631971 0.0 0.0 0.0 16.28999089631971 0.0 0.0 0.0 34.56409401068381" Properties=species:S:1:pos:R:3:initial_magmoms:R:1 pbc="T T T"
Si       1.35654975       1.35654975      -1.35695253       0.00000000
Si       1.35496962      -1.35757602       1.35833509       0.00000000
Si      -1.35837423       1.35400851       1.35944114       0.00000000
Si      -1.35827649      -1.35765747      -1.35702165       0.00000000
Si       2.71041165       0.00689067       2.71400874       0.00000000
Si       2.71300176       2.71344159       0.00072585       0.00000000
Si      -0.00084708       2.71412577      -2.71407787       0.00000000
Si       2.71417464      -0.00055386      -2.71431982       0.00000000
Si      -2.71472850      -2.71407690       0.00107149       0.00000000
Si       2.71337643      -2.71591767       0.00079497       0.00000000
