10
Lattice="16.28999089631971 0.0 0.0 0.0 16.28999089631971 0.0 0.0 0.0 34.56409401068381" Properties=species:S:1:pos:R:3:initial_magmoms:R:1 pbc="T T T"
Si      -1.34996859      -1.36798533      -1.37751817       0.00000000
Si       1.36303317       1.35456905      -1.37852053       0.00000000
Si       1.41696936      -1.31263191       1.37153858       0.00000000
Si      -1.40312286       1.25046927       1.54712428       0.00000000
Si      -2.71147050       2.68570528       0.00549569       0.00000000
Si      -2.69420310      -2.70953199       0.02077303       0.00000000
Si       2.70650205       2.71043838      -0.00369836       0.00000000
Si       2.71881729      -2.71510317      -0.02295057       0.00000000
Si       0.00835677       2.70691486      -2.73654454       0.00000000
Si      -2.70821250      -0.00746082      -2.73578413       0.00000000
