10
Lattice="16.28999089631971 0.0 0.0 0.0 16.28999089631971 0.0 0.0 0.0 34.56409401068381" Properties=species:S:1:pos:R:3:initial_magmoms:R:1 pbc="T T T"
Si      -0.09238059       1.92059100       1.36493684       0.00000000
Si       2.02939910      -0.33124086      -1.19363709       0.00000000
Si      -1.98542520      -0.07380999      -1.31855180       0.00000000
Si      -0.83207691      -1.74600455       1.41954813       0.00000000
Si       1.02882820      -1.44563161      -3.05221859       0.00000000
Si      -2.04926571       2.83664286       0.51182539       0.00000000
Si       0.08906730       0.89632467       3.45461400       0.00000000
Si      -3.51215658       1.07093718       0.06587920       0.00000000
Si       0.85998072      -3.36091112       1.40133285       0.00000000
Si      -1.67946642      -0.61502895       3.31898442       0.00000000
