10
Lattice="16.28999089631971 0.0 0.0 0.0 16.28999089631971 0.0 0.0 0.0 34.56409401068381" Properties=species:S:1:pos:R:3:initial_magmoms:R:1 pbc="T T T"
Si       1.31885469      -1.37122704       1.41916793       0.00000000
Si      -1.39196421       1.36023129       1.40306105       0.00000000
Si      -1.54748484      -1.22588766      -1.38470202       0.00000000
Si       1.72865963       0.78074712      -1.53035519       0.00000000
Si       2.58554295       2.57043168      -0.01355259       0.00000000
Si       2.69978635      -2.66652313      -0.02154381       0.00000000
Si       2.68311028      -0.00739566       2.78526612       0.00000000
Si      -2.73232170      -2.73697087       0.02820432       0.00000000
Si      -0.03639186       2.71366965       2.78478222       0.00000000
Si      -0.03137454      -2.72026547       2.78633761       0.00000000
