10
Lattice="16.28999089631971 0.0 0.0 0.0 16.28999089631971 0.0 0.0 0.0 34.56409401068381" Properties=species:S:1:pos:R:3:initial_magmoms:R:1 pbc="T T T"
Si       1.35744570       1.35682668      -1.35798945       0.00000000
Si      -1.36111095       1.35760860       1.35449847       0.00000000
Si      -1.35793440      -1.35801585      -1.35798945       0.00000000
Si       1.35956340      -1.35899325       1.35667601       0.00000000
Si      -2.70081684       0.00793323       2.69893879       0.00000000
Si       2.72521926      -0.00711873       2.69873140       0.00000000
Si      -2.71252935       2.71484253      -0.00103692       0.00000000
Si       2.71502172       2.71376739      -0.00093323       0.00000000
Si      -0.00066789       2.71454931      -2.71497654       0.00000000
Si       2.71489140      -0.00100998      -2.71501110       0.00000000
