10
Lattice="16.28999089631971 0.0 0.0 0.0 16.28999089631971 0.0 0.0 0.0 34.56409401068381" Properties=species:S:1:pos:R:3:initial_magmoms:R:1 pbc="T T T"
Si       1.35626167      -1.35788553       1.35494781       0.00000000
Si      -1.35500220       1.35749457       1.35729817       0.00000000
Si      -1.35757602      -1.35694071      -1.35705622       0.00000000
Si       1.35747029       1.35755973      -1.35660688       0.00000000
Si      -0.01234782       2.71494027       2.70471100       0.00000000
Si       0.01019754      -2.72088612       2.69966464       0.00000000
Si       2.71575707      -0.00571779       2.71034495       0.00000000
Si       2.71300406      -2.71417464       0.00044933       0.00000000
Si      -2.71502172      -2.71376739       0.00093323       0.00000000
Si      -0.00013032      -2.71477737      -2.71407787       0.00000000
