10
Lattice="16.28999089631971 0.0 0.0 0.0 16.28999089631971 0.0 0.0 0.0 34.56409401068381" Properties=species:S:1:pos:R:3:initial_magmoms:R:1 pbc="T T T"
Si      -1.34908893      -1.35868374      -1.37105468       0.00000000
Si       1.37204154       1.35496962      -1.36918822       0.00000000
Si       1.32377427      -1.46230443       1.31519908       0.00000000
Si      -1.33483518       1.42136766       1.38187325       0.00000000
Si      -2.60123607      -0.02985957       2.76212199       0.00000000
Si      -2.68879482      -2.70835911      -0.02661437       0.00000000
Si      -2.70050733      -0.00144981      -2.72659008       0.00000000
Si       2.71469592       2.71241532      -0.02177539       0.00000000
Si      -2.71029762       2.72624553       0.00960882       0.00000000
Si       0.01109349       2.71248048      -2.72579511       0.00000000
