10
Lattice="16.28999089631971 0.0 0.0 0.0 16.28999089631971 0.0 0.0 0.0 34.56409401068381" Properties=species:S:1:pos:R:3:initial_magmoms:R:1 pbc="T T T"
Si       1.98260770       1.25981973       0.09646844       0.00000000
Si       0.50798094      -1.49227803      -1.79318620       0.00000000
Si      -2.00639043       1.23062805      -0.52872724       0.00000000
Si      -0.05080851      -1.33731126       2.12908025       0.00000000
Si       2.27021417      -2.04372711       2.11594589       0.00000000
Si       3.53381318      -0.17078436       1.25989649       0.00000000
Si      -1.26055278      -3.00363165      -1.92881578       0.00000000
Si      -3.85056504      -0.19468179       0.15661000       0.00000000
Si       3.08547980       1.28886480      -1.98671067       0.00000000
Si       1.71261072       3.20018679       1.46023010       0.00000000
