10
Lattice="16.28999089631971 0.0 0.0 0.0 16.28999089631971 0.0 0.0 0.0 34.56409401068381" Properties=species:S:1:pos:R:3:initial_magmoms:R:1 pbc="T T T"
Si      -1.87571205      -0.87180822      -1.08939172       0.00000000
Si      -0.37431162       2.25854334      -0.53975319       0.00000000
Si       0.26805195       0.19308537       2.37593715       0.00000000
Si       1.70115560      -1.68842592      -0.21004612       0.00000000
Si      -2.87562483      -1.68739965       0.85359534       0.00000000
Si       1.73573927       3.19709169      -0.44656834       0.00000000
Si       3.59789804      -0.36059544      -0.67244482       0.00000000
Si      -1.04979276      -2.61816138      -2.45588394       0.00000000
Si       2.40135518       1.29643965       2.56393136       0.00000000
Si       0.37913346      -2.03963832       3.13309862       0.00000000
