10
Lattice="16.28999089631971 0.0 0.0 0.0 16.28999089631971 0.0 0.0 0.0 34.56409401068381" Properties=species:S:1:pos:R:3:initial_magmoms:R:1 pbc="T T T"
Si      -1.65745863       1.74814506       0.16535351       0.00000000
Si      -0.91685007      -1.73767059       1.41392252       0.00000000
Si       1.85694597       0.97629228       1.35944602       0.00000000
Si      -1.11562065      -0.29424627      -2.62659610       0.00000000
Si      -2.13412032      -0.34437060       2.86570860       0.00000000
Si      -2.77301412       1.26812763      -1.90299639       0.00000000
Si       0.58440375       2.38195638       2.84202873       0.00000000
Si      -3.47245785       0.85359600       1.39897700       0.00000000
Si      -2.48567481      -2.92680801       0.06311407       0.00000000
Si      -0.77833620       3.65314653       1.36476198       0.00000000
