10
Lattice="16.28999089631971 0.0 0.0 0.0 16.28999089631971 0.0 0.0 0.0 34.56409401068381" Properties=species:S:1:pos:R:3:initial_magmoms:R:1 pbc="T T T"
Si      -1.32998076       1.37907265       1.37295571       0.00000000
Si       1.35149438       1.36262901      -1.37807120       0.00000000
Si      -1.36588392      -1.35221661      -1.37565171       0.00000000
Si       1.25705043      -1.40545233       1.53513053       0.00000000
Si      -2.51867835      -0.08610894       2.81583462       0.00000000
Si       2.71432029       2.69659840      -0.00445877       0.00000000
Si       2.71064690      -2.70195714       0.00801887       0.00000000
Si      -2.72704374      -2.70257616      -0.02167170       0.00000000
Si       2.70769189       0.00706986      -2.73550762       0.00000000
Si      -0.00790065      -2.70889668      -2.73460895       0.00000000
