10
Lattice="16.28999089631971 0.0 0.0 0.0 16.28999089631971 0.0 0.0 0.0 34.56409401068381" Properties=species:S:1:pos:R:3:initial_magmoms:R:1 pbc="T T T"
Si       1.57172436      -1.71781308       0.34013442       0.00000000
Si       0.96198966       1.78667091       1.32627484       0.00000000
Si      -1.80652842      -1.04969502       1.26155354       0.00000000
Si       0.10441890       0.12771360      -2.52909074       0.00000000
Si       1.43747847       2.06702181      -2.11421768       0.00000000
Si       2.26619736       0.40203720       2.75417366       0.00000000
Si      -0.44378847      -2.32088517       2.73882029       0.00000000
Si       3.57271044      -0.96857082       1.35991264       0.00000000
Si       2.16230202       3.30496963      -0.15246230       0.00000000
Si      -2.68565085      -2.95469649       0.06214507       0.00000000
