10
Lattice="16.28999089631971 0.0 0.0 0.0 16.28999089631971 0.0 0.0 0.0 34.56409401068381" Properties=species:S:1:pos:R:3:initial_magmoms:R:1 pbc="T T T"
Si       0.58872060       1.24035318       1.90842295       0.00000000
Si       1.92485898      -1.29238344      -0.47218035       0.00000000
Si      -1.93118276      -1.35746199       0.22041535       0.00000000
Si       0.12012246       1.80221157      -1.62651804       0.00000000
Si      -0.97156818       0.01956429      -2.95336523       0.00000000
Si      -2.76310817      -1.05917580      -1.86501043       0.00000000
Si      -1.41613857       0.73757862       3.13278754       0.00000000
Si      -1.11057075      -3.46193451       0.64379117       0.00000000
Si      -3.12763765      -0.31977270       1.94340184       0.00000000
Si       2.44336968       0.02298519       2.89315454       0.00000000
