10
Lattice="16.28999089631971 0.0 0.0 0.0 16.28999089631971 0.0 0.0 0.0 34.56409401068381" Properties=species:S:1:pos:R:3:initial_magmoms:R:1 pbc="T T T"
Si       1.28384748       1.20835962      -1.54606112       0.00000000
Si       1.49169159      -1.20958137       1.36040548       0.00000000
Si      -1.25222859       1.51009929       1.36149771       0.00000000
Si      -1.34543997      -1.39566204      -1.47040028       0.00000000
Si      -0.23350086       2.79557577      -2.33937665       0.00000000
Si       0.11308518      -2.55497247       2.73675884       0.00000000
Si       2.66308920       2.65372245      -0.05848939       0.00000000
Si      -2.60117417       0.16597881       2.73852161       0.00000000
Si      -2.69779993      -2.69162928      -0.06212899       0.00000000
Si       0.25808247      -2.37109095      -2.99993142       0.00000000
