10
Lattice="16.28999089631971 0.0 0.0 0.0 16.28999089631971 0.0 0.0 0.0 34.56409401068381" Properties=species:S:1:pos:R:3:initial_magmoms:R:1 pbc="T T T"
Si       1.35677781      -1.35707103      -1.35754012       0.00000000
Si      -1.35786761      -1.35708732       1.35719447       0.00000000
Si       1.35765747       1.35861858       1.35664145       0.00000000
Si      -1.35844591       1.35799956      -1.35788576       0.00000000
Si       0.00021177       2.71316466       2.71559869       0.00000000
Si       2.71122615      -0.00190593       2.71784536       0.00000000
Si       2.71454931      -2.71463076       0.00013826       0.00000000
Si       2.71441899       2.71516833       0.00010369       0.00000000
Si       0.00068418      -2.71463076      -2.71542587       0.00000000
Si      -2.71514135       2.71495656      -0.00003456       0.00000000
