10
Lattice="16.28999089631971 0.0 0.0 0.0 16.28999089631971 0.0 0.0 0.0 34.56409401068381" Properties=species:S:1:pos:R:3:initial_magmoms:R:1 pbc="T T T"
Si       1.35417141       1.34763912      -1.38470751       0.00000000
Si      -1.36006725      -1.36699164      -1.38259910       0.00000000
Si       1.51813026      -1.29042864       1.35702165       0.00000000
Si      -1.45359647       1.29650481       1.52711166       0.00000000
Si      -0.01950239      -2.66260050       2.51962017       0.00000000
Si      -2.71064690       2.70195714      -0.00801887       0.00000000
Si       2.72015307       2.69926929       0.00708564       0.00000000
Si      -0.00295501       2.70902700      -2.74352650       0.00000000
Si      -2.73112343      -2.72349252      -0.03888463       0.00000000
Si       2.72697858      -2.72807001      -0.03249027       0.00000000
