10
Lattice="16.28999089631971 0.0 0.0 0.0 16.28999089631971 0.0 0.0 0.0 34.56409401068381" Properties=species:S:1:pos:R:3:initial_magmoms:R:1 pbc="T T T"
Si      -1.35669544       1.35695700       1.35785119       0.00000000
Si       1.35707755       1.35764118      -1.35681427       0.00000000
Si      -1.35845095      -1.35751086      -1.35691796       0.00000000
Si       1.35844591      -1.35799956       1.35788576       0.00000000
Si       0.00122501      -2.71208952      -2.71480372       0.00000000
Si      -2.71420789       2.71451673       0.00027651       0.00000000
Si      -0.00074608       2.71321353      -2.71552956       0.00000000
Si      -2.71702606       0.00206883      -2.71203859       0.00000000
Si      -2.71406128       0.00058644       2.71556413       0.00000000
Si      -2.71520158      -2.71459818       0.00017282       0.00000000
