10
Lattice="16.28999089631971 0.0 0.0 0.0 16.28999089631971 0.0 0.0 0.0 34.56409401068381" Properties=species:S:1:pos:R:3:initial_magmoms:R:1 pbc="T T T"
Si      -1.21804958      -1.41618744      -1.43278619       0.00000000
Si       1.51880792      -1.43237970       1.17521442       0.00000000
Si       1.50004184       1.21552722      -1.49610765       0.00000000
Si      -0.77167848      -0.53325315       2.74753593       0.00000000
Si       1.42978307      -0.15962571       3.36319192       0.00000000
Si      -2.47510001      -0.01073511      -2.96791672       0.00000000
Si       2.88066821       2.60221088      -0.11299009       0.00000000
Si      -2.64024803      -2.96955297      -0.06498053       0.00000000
Si       0.23922028       2.68586329      -2.97237549       0.00000000
Si       0.23554688      -2.71269225      -2.95989784       0.00000000
