10
Lattice="16.28999089631971 0.0 0.0 0.0 16.28999089631971 0.0 0.0 0.0 34.56409401068381" Properties=species:S:1:pos:R:3:initial_magmoms:R:1 pbc="T T T"
Si      -2.01538088       0.81707382       0.86710991       0.00000000
Si       1.21837797       1.95077637      -0.43789275       0.00000000
Si       1.50218235      -1.10815983       1.45805256       0.00000000
Si       0.15964200      -0.98117928      -2.22278356       0.00000000
Si       3.05981586      -1.39124745      -0.27433537       0.00000000
Si       3.29644440       0.95218308      -0.92452090       0.00000000
Si       0.40185801       2.80234331      -2.48540170       0.00000000
Si      -3.01627988       2.17118007      -0.85891822       0.00000000
Si       2.07391248      -2.45076534      -2.11369922       0.00000000
Si       0.41045913      -2.87713980       2.54360766       0.00000000
