10
Lattice="10.86 0.0 0.0 0.0 10.86 0.0 0.0 0.0 10.86" Properties=species:S:1:pos:R:3:initial_magmoms:R:1 pbc="T T T"
Si       1.44490128      -1.04870676       1.20530796       0.00000000
Si      -1.33005678       1.27836318       1.31373420       0.00000000
Si      -1.13583654      -1.57382034      -1.23519468       0.00000000
Si       1.50543492       1.35275418      -1.21995810       0.00000000
Si      -2.55517338      -0.02054712      -2.59419336       0.00000000
Si      -2.55517338       2.69445288       0.12080664       0.00000000
Si       0.15982662       2.69445288      -2.59419336       0.00000000
Si      -2.55517338      -2.73554712       0.12080664       0.00000000
Si       0.15982662      -2.73554712      -2.59419336       0.00000000
Si      -2.55517338      -0.02054712       2.83580664       0.00000000
