10
Lattice="10.86 0.0 0.0 0.0 10.86 0.0 0.0 0.0 10.86" Properties=species:S:1:pos:R:3:initial_magmoms:R:1 pbc="T T T"
Si       1.36939170       1.34169870       1.34076474       0.00000000
Si      -1.34560830       1.34169870      -1.37423526       0.00000000
Si      -1.50543492      -1.35275418       1.21995810       0.00000000
Si       1.36939170      -1.37330130      -1.37423526       0.00000000
Si      -0.06053364      -2.40146094       2.42526606       0.00000000
Si       2.55478242      -2.73306018       0.00928530       0.00000000
Si      -2.83549170      -0.07439100       2.53369230       0.00000000
Si       0.01189170       2.69919870       2.69826474       0.00000000
Si      -2.70310830       2.69919870      -0.01673526       0.00000000
Si       2.72689170       2.69919870      -0.01673526       0.00000000
