10
Lattice="10.86 0.0 0.0 0.0 10.86 0.0 0.0 0.0 10.86" Properties=species:S:1:pos:R:3:initial_magmoms:R:1 pbc="T T T"
Si      -1.55407686      -1.15616646       1.06628910       0.00000000
Si       1.16092314       1.55883354       1.06628910       0.00000000
Si       1.16092314      -1.15616646      -1.64871090       0.00000000
Si      -0.19657686      -2.51366646       2.42378910       0.00000000
Si       2.51842314       0.20133354       2.42378910       0.00000000
Si       2.51842314      -2.51366646      -0.29121090       0.00000000
Si      -2.91157686       0.20133354       2.42378910       0.00000000
Si      -0.19657686       2.91633354       2.42378910       0.00000000
Si      -2.83290702      -2.51509998      -0.36313668       0.00000000
Si       2.51842314       2.91633354      -0.29121090       0.00000000
