10
Lattice="10.86 0.0 0.0 0.0 10.86 0.0 0.0 0.0 10.86" Properties=species:S:1:pos:R:3:initial_magmoms:R:1 pbc="T T T"
Si       1.20147438      -1.25768574      -1.44750768       0.00000000
Si       1.20147438       1.45731426       1.26749232       0.00000000
Si      -1.51352562       1.45731426      -1.44750768       0.00000000
Si       2.55897438      -2.61518574      -0.09000768       0.00000000
Si       2.55897438       0.09981426       2.62499232       0.00000000
Si      -2.94345096      -2.28584538      -0.36300636       0.00000000
Si       2.55897438       0.09981426      -2.80500768       0.00000000
Si       2.55897438       2.81481426      -0.09000768       0.00000000
Si      -0.32813490      -2.61744462      -2.77898712       0.00000000
Si      -0.15602562       2.81481426       2.62499232       0.00000000
