10
Lattice="10.86 0.0 0.0 0.0 10.86 0.0 0.0 0.0 10.86" Properties=species:S:1:pos:R:3:initial_magmoms:R:1 pbc="T T T"
Si       1.27575678      -1.36661154      -1.21873092       0.00000000
Si      -1.43924322       1.34838846      -1.21873092       0.00000000
Si      -1.43924322      -1.36661154       1.49626908       0.00000000
Si       2.38234734      -0.04173498       2.71378368       0.00000000
Si       2.46114750       2.70362958       0.16478964       0.00000000
Si       2.63325678      -0.00911154      -2.57623092       0.00000000
Si      -2.73490638       2.51011524       0.14026776       0.00000000
Si      -0.08174322       2.70588846      -2.57623092       0.00000000
Si      -0.08174322      -2.72411154      -2.57623092       0.00000000
Si       2.63325678      -2.72411154       0.13876908       0.00000000
