10
Lattice="16.28999089631971 0.0 0.0 0.0 16.28999089631971 0.0 0.0 0.0 34.69518985606464" Properties=species:S:1:pos:R:3:initial_magmoms:R:1 pbc="T T T"
Si       0.79435741       1.93911273      -1.03075303       0.00000000
Si       1.47035984      -1.20310514       1.47206915       0.00000000
Si      -1.36093080      -1.38952790      -1.44966442       0.00000000
Si      -1.27228062       1.49760486       1.47390106       0.00000000
Si       2.80543936      -2.60099891      -0.01991158       0.00000000
Si       0.10742603      -2.55739058       2.85519367       0.00000000
Si      -1.00867517       3.51730422      -1.21567993       0.00000000
Si      -2.79695946      -2.66620778      -0.05152239       0.00000000
Si      -2.60551938       0.16155770       2.86358991       0.00000000
Si      -2.84325564       2.70739800      -0.02838415       0.00000000
