10
Lattice="16.28999089631971 0.0 0.0 0.0 16.28999089631971 0.0 0.0 0.0 34.69518985606464" Properties=species:S:1:pos:R:3:initial_magmoms:R:1 pbc="T T T"
Si       2.01069099       0.86452659       0.88493601       0.00000000
Si       0.59996070      -2.13231702      -0.84746518       0.00000000
Si      -1.06999725       1.39010715      -1.63764857       0.00000000
Si      -1.41531755      -1.08111843       1.68528509       0.00000000
Si       1.53336141      -2.77775451       1.26928954       0.00000000
Si      -2.67664967       2.26046556      -0.08163783       0.00000000
Si       2.85829227      -1.01810871       2.01645087       0.00000000
Si      -1.52549008      -3.20809852      -1.01587573       0.00000000
Si       1.28682855       2.77195527       2.21490746       0.00000000
Si      -3.03691931      -2.38274970       0.65865385       0.00000000
