10
Lattice="16.28999089631971 0.0 0.0 0.0 16.28999089631971 0.0 0.0 0.0 34.69518985606464" Properties=species:S:1:pos:R:3:initial_magmoms:R:1 pbc="T T T"
Si      -1.54893465       1.15012287      -1.29729898       0.00000000
Si       1.34807895       1.36728486       1.35411585       0.00000000
Si      -1.36992384      -1.34786718       1.35654452       0.00000000
Si       1.17859779      -1.45546263      -1.48251588       0.00000000
Si      -0.83290770      -2.16591840      -2.92930060       0.00000000
Si      -2.52550386      -0.43776117      -2.77063940       0.00000000
Si       2.68770339      -2.71479366      -0.02984482       0.00000000
Si       2.69250894       2.71036278      -0.03195429       0.00000000
Si       2.70124038       0.00705357       2.71340476       0.00000000
Si      -0.01389537      -2.70689301       2.71312720       0.00000000
