10
Lattice="16.28999089631971 0.0 0.0 0.0 16.28999089631971 0.0 0.0 0.0 34.69518985606464" Properties=species:S:1:pos:R:3:initial_magmoms:R:1 pbc="T T T"
Si       0.34973001      -0.81676431      -2.16567496       0.00000000
Si      -2.32163451      -0.25277193       0.53135713       0.00000000
Si       1.72983510      -0.62711613       1.64791835       0.00000000
Si       0.33775686       2.72471427       0.07230482       0.00000000
Si      -2.38254282       1.29482694       2.32017273       0.00000000
Si       1.34547255       0.92450637       3.37712758       0.00000000
Si       1.15825158       0.98002269      -3.43815646       0.00000000
Si       1.90852011       2.83918410       2.05360944       0.00000000
Si      -1.59220089      -1.66864986      -3.35304911       0.00000000
Si       1.09822293       3.28530204      -2.22354657       0.00000000
