10
Lattice="16.28999089631971 0.0 0.0 0.0 16.28999089631971 0.0 0.0 0.0 34.69518985606464" Properties=species:S:1:pos:R:3:initial_magmoms:R:1 pbc="T T T"
Si      -1.00534779       1.19928576      -1.78055814       0.00000000
Si       2.12545078       1.07578150       0.16841055       0.00000000
Si       0.72492944      -2.27753359      -0.03094813       0.00000000
Si      -1.51142922       0.82534881       1.67452958       0.00000000
Si       0.11017253       2.12698009       2.70116082       0.00000000
Si      -3.23544879       1.23473606      -1.05643443       0.00000000
Si       1.52549008       3.20809852       1.01587573       0.00000000
Si      -1.60581348      -0.46621591      -3.34430591       0.00000000
Si      -2.03751477      -1.05312832       3.03038366       0.00000000
Si       2.11800625      -2.43323341      -2.01537531       0.00000000
