10
Lattice="16.28999089631971 0.0 0.0 0.0 16.28999089631971 0.0 0.0 0.0 34.69518985606464" Properties=species:S:1:pos:R:3:initial_magmoms:R:1 pbc="T T T"
Si       1.00607040       2.04046911       0.65785586       0.00000000
Si      -1.66508235      -0.58279104       1.61062100       0.00000000
Si       1.76101416      -1.63593954       0.01838846       0.00000000
Si      -1.35317772       0.54732771      -1.98630073       0.00000000
Si      -3.40674399      -1.34656398       0.18624388       0.00000000
Si      -0.75046401       3.58827975       0.69057344       0.00000000
Si      -3.58596657       0.51352596      -1.22397759       0.00000000
Si       2.41600248       2.84003118      -1.09598696       0.00000000
Si       3.78403668      -0.51243453      -0.81849468       0.00000000
Si       1.15206138      -3.44440647      -1.56829285       0.00000000
