10
Lattice="16.28999089631971 0.0 0.0 0.0 16.28999089631971 0.0 0.0 0.0 34.69518985606464" Properties=species:S:1:pos:R:3:initial_magmoms:R:1 pbc="T T T"
Si       1.35583299       1.35446476      -1.35738067       0.00000000
Si       1.35757602      -1.35741312       1.35710311       0.00000000
Si      -1.35778779       1.35769052       1.35769293       0.00000000
Si      -1.35935163      -1.36164852      -1.35689494       0.00000000
Si       0.00100998      -2.71078632      -2.71365110       0.00000000
Si      -0.00330687       2.71175462       2.71444909       0.00000000
Si       2.71371852      -0.00058644       2.71535116       0.00000000
Si       2.71549413       2.71444572       0.00013878       0.00000000
Si       2.71498914      -2.71497285       0.00027756       0.00000000
Si      -2.71494353       2.71514619       0.00003470       0.00000000
