10
Lattice="16.28999089631971 0.0 0.0 0.0 16.28999089631971 0.0 0.0 0.0 34.69518985606464" Properties=species:S:1:pos:R:3:initial_magmoms:R:1 pbc="T T T"
Si      -0.63845397      -1.00378980      -2.04521319       0.00000000
Si      -0.34088454      -1.19160047       2.04129264       0.00000000
Si      -2.00709904       1.25446521       0.35271150       0.00000000
Si       2.19168918       1.06590846      -0.48875141       0.00000000
Si      -1.81849505       0.71441913      -3.16160094       0.00000000
Si      -1.24288139       3.44146287       0.74483675       0.00000000
Si      -0.73477674       0.58543491       3.61839807       0.00000000
Si       2.45511477       0.77742885      -2.83043517       0.00000000
Si       1.13018391      -0.98221695      -3.57759650       0.00000000
Si      -3.23547812       1.66347453      -1.59355096       0.00000000
