10
Lattice="16.28999089631971 0.0 0.0 0.0 16.28999089631971 0.0 0.0 0.0 34.69518985606464" Properties=species:S:1:pos:R:3:initial_magmoms:R:1 pbc="T T T"
Si      -1.35350352      -1.34661285      -1.37545688       0.00000000
Si       1.36179513       1.37043349      -1.37937743       0.00000000
Si       1.00256805      -1.74941568       1.28670653       0.00000000
Si      -1.32879159       1.35839052       1.52429932       0.00000000
Si       2.11804209      -0.45533808       2.94926626       0.00000000
Si      -2.69966840       2.68936401      -0.01557815       0.00000000
Si       2.71034649       2.70076864      -0.01405156       0.00000000
Si      -2.71095737      -2.72090241       0.00357361       0.00000000
Si       0.00415395      -2.70743058      -2.73443353       0.00000000
Si      -2.71357680       0.00452862      -2.73727853       0.00000000
