10
Lattice="16.28999089631971 0.0 0.0 0.0 16.28999089631971 0.0 0.0 0.0 34.69518985606464" Properties=species:S:1:pos:R:3:initial_magmoms:R:1 pbc="T T T"
Si       1.72719612      -0.97477731      -1.29152916       0.00000000
Si       1.11547404       1.29407760       1.66255973       0.00000000
Si      -1.00256805       1.74941568      -1.28670653       0.00000000
Si      -0.95729814      -0.86341887       2.76399384       0.00000000
Si       0.22809258      -2.85703794       1.42406486       0.00000000
Si       2.30576805      -0.48619134       2.63399090       0.00000000
Si       0.36400005      -2.31756201      -2.66389817       0.00000000
Si      -2.35607157       0.40280283      -2.66216341       0.00000000
Si       2.69529453       2.77218333       0.06172278       0.00000000
Si       2.97274581      -2.49181614       0.09326072       0.00000000
