10
Lattice="16.28999089631971 0.0 0.0 0.0 16.28999089631971 0.0 0.0 0.0 34.69518985606464" Properties=species:S:1:pos:R:3:initial_magmoms:R:1 pbc="T T T"
Si       1.35767376       1.35587814       1.35696433       0.00000000
Si      -1.35656604       1.35687672      -1.35734598       0.00000000
Si       1.35803214      -1.35714547      -1.35727659       0.00000000
Si      -1.35834165      -1.35815545       1.35786640       0.00000000
Si       0.00389331      -2.71141462       2.71469195       0.00000000
Si      -0.00073305       2.71255984      -2.71361640       0.00000000
Si       2.71435383      -0.00030938      -2.71337353       0.00000000
Si      -0.00102627      -2.71460746      -2.71413683       0.00000000
Si      -2.71448415      -2.71498213      -0.00038165       0.00000000
Si      -2.71477737       2.71516624       0.00034695       0.00000000
