10
Lattice="16.28999089631971 0.0 0.0 0.0 16.28999089631971 0.0 0.0 0.0 34.69518985606464" Properties=species:S:1:pos:R:3:initial_magmoms:R:1 pbc="T T T"
Si       1.36774098       1.34078103      -1.36615856       0.00000000
Si      -1.35762489      -1.36244673      -1.35734598       0.00000000
Si       1.06129350      -1.64471985       1.32095070       0.00000000
Si      -0.82090197       1.88172306       1.28115530       0.00000000
Si       2.13540723      -0.07089408       2.65907553       0.00000000
Si      -0.52548282       0.69041907       3.39666099       0.00000000
Si       2.69750997       2.70130554       0.01970688       0.00000000
Si       2.69234604      -2.72490486      -0.01203924       0.00000000
Si       0.00045612       2.70125667      -2.71875129       0.00000000
Si      -2.70503595       2.71507059       0.01627205       0.00000000
