10
Lattice="16.28999089631971 0.0 0.0 0.0 16.28999089631971 0.0 0.0 0.0 34.69518985606464" Properties=species:S:1:pos:R:3:initial_magmoms:R:1 pbc="T T T"
Si       0.89643870      -1.13343769       1.80376923       0.00000000
Si       0.26717229      -1.02743866      -2.06446904       0.00000000
Si      -2.16858996      -0.11116312       0.86370254       0.00000000
Si       0.97968060       2.08708620      -0.42348972       0.00000000
Si      -0.94710060       0.56838742      -3.26749072       0.00000000
Si       1.21775895      -3.26374615       0.89961208       0.00000000
Si      -2.62373256      -2.44916470       0.53822678       0.00000000
Si      -3.31884315       1.58916606      -0.15533045       0.00000000
Si       2.55826305      -1.12179034      -2.41770096       0.00000000
Si      -1.97714988       0.70897827       3.03978606       0.00000000
