10
Lattice="16.28999089631971 0.0 0.0 0.0 16.28999089631971 0.0 0.0 0.0 34.69518985606464" Properties=species:S:1:pos:R:3:initial_magmoms:R:1 pbc="T T T"
Si      -0.79687422       0.85181387      -2.05843207       0.00000000
Si      -1.48252846      -1.84648520       0.00478794       0.00000000
Si       2.11994802      -0.69524580      -0.82876446       0.00000000
Si      -0.39366414       1.80702689       1.51305808       0.00000000
Si       0.90603351       2.47185437      -2.32006864       0.00000000
Si       2.95098237       1.45231214      -1.61225168       0.00000000
Si       1.47020508      -2.04157424      -2.70282619       0.00000000
Si      -0.40298202      -0.92522150      -3.63553750       0.00000000
Si      -3.66882470      -0.96461235       0.21781652       0.00000000
Si       1.41705081       3.34493321       1.41483594       0.00000000
