10
Lattice="16.28999089631971 0.0 0.0 0.0 16.28999089631971 0.0 0.0 0.0 34.69518985606464" Properties=species:S:1:pos:R:3:initial_magmoms:R:1 pbc="T T T"
Si       0.27455166       0.79172658       2.20068243       0.00000000
Si      -0.30230982      -2.32951887       0.24772379       0.00000000
Si      -2.11602213       0.94504806      -0.79781634       0.00000000
Si       2.25082188       0.26388171      -1.06451841       0.00000000
Si      -0.63107460       0.45361134      -2.58517474       0.00000000
Si       2.04568191      -0.65518380       2.72218612       0.00000000
Si      -2.35742364      -2.14024536       1.45088426       0.00000000
Si       3.18060621      -1.28373345       0.71312533       0.00000000
Si      -1.74847086      -0.33177843       3.03756557       0.00000000
Si       0.07495029      -3.26818125      -1.89605849       0.00000000
