10
Lattice="16.28999089631971 0.0 0.0 0.0 16.28999089631971 0.0 0.0 0.0 34.69518985606464" Properties=species:S:1:pos:R:3:initial_magmoms:R:1 pbc="T T T"
Si       0.52800777      -0.43272756       2.23787569       0.00000000
Si      -0.95892714      -2.10478203      -0.50949915       0.00000000
Si      -1.52868618       1.77214023       0.51640349       0.00000000
Si       1.82327454       0.48938418      -1.63580973       0.00000000
Si       0.57003597      -2.73217509      -2.22063217       0.00000000
Si      -3.15305982      -1.66223160      -1.27681840       0.00000000
Si      -2.46039273       2.52656271      -1.46989723       0.00000000
Si       0.73785555       1.76480973      -3.35644924       0.00000000
Si       0.21638007       1.32416523       3.62991688       0.00000000
Si      -0.32319360       3.64742874       1.30759305       0.00000000
