10
Lattice="16.28999089631971 0.0 0.0 0.0 16.28999089631971 0.0 0.0 0.0 34.69518985606464" Properties=species:S:1:pos:R:3:initial_magmoms:R:1 pbc="T T T"
Si       1.33173031       1.36531377      -1.34700333       0.00000000
Si       1.35228829      -1.35909099       1.36116245       0.00000000
Si      -1.36098089       1.35612621       1.36067672       0.00000000
Si      -1.38365698      -1.37549502      -1.38732958       0.00000000
Si      -0.17880556       2.49315192      -2.80639139       0.00000000
Si       2.56869517       0.05048271      -2.79561506       0.00000000
Si       2.71150960      -2.71351652      -0.00232458       0.00000000
Si       2.71139557       2.71440270       0.00340013       0.00000000
Si      -2.71689574      -2.71154218       0.00235927       0.00000000
Si       2.71106977      -0.00058644       2.71809208       0.00000000
