10
Lattice="16.28999089631971 0.0 0.0 0.0 16.28999089631971 0.0 0.0 0.0 34.69518985606464" Properties=species:S:1:pos:R:3:initial_magmoms:R:1 pbc="T T T"
Si       1.51053586      -1.12783815       1.45938806       0.00000000
Si      -0.94124597      -1.84894758      -1.27051917       0.00000000
Si      -1.19816504       1.57374432       1.41888487       0.00000000
Si       1.73462110       1.13135679      -1.31739240       0.00000000
Si      -0.09146346       1.88170677      -2.67314240       0.00000000
Si       2.74750072      -2.44266921       0.01077633       0.00000000
Si       0.86178661      -3.42713907      -1.08559228       0.00000000
Si       0.17880556      -2.49315192       2.80639139       0.00000000
Si       3.42721726      -0.59680044      -1.47605359       0.00000000
Si      -2.53745487       0.21980097       2.80906292       0.00000000
