10
Lattice="16.28999089631971 0.0 0.0 0.0 16.28999089631971 0.0 0.0 0.0 34.69518985606464" Properties=species:S:1:pos:R:3:initial_magmoms:R:1 pbc="T T T"
Si       1.19553939      -1.66110759       1.16985307       0.00000000
Si       1.16685270       2.01435624       0.40270729       0.00000000
Si      -0.87970887      -0.16685847      -2.21320740       0.00000000
Si      -1.76513553      -0.49309830       1.58113008       0.00000000
Si      -0.76707981      -2.60548776       2.08847812       0.00000000
Si      -2.63624328       1.38095217      -2.18048982       0.00000000
Si       2.22378048      -0.45680418       2.94263948       0.00000000
Si       1.92023262       1.89302832       2.63749511       0.00000000
Si      -0.29372499       3.79674288       0.23440083       0.00000000
Si       3.09550725       2.26750284      -0.96185529       0.00000000
