10
Lattice="16.28999089631971 0.0 0.0 0.0 16.28999089631971 0.0 0.0 0.0 34.69518985606464" Properties=species:S:1:pos:R:3:initial_magmoms:R:1 pbc="T T T"
Si       1.35441576       1.35544203       1.35686024       0.00000000
Si       1.35725022      -1.35703845      -1.35800519       0.00000000
Si      -1.35788553       1.35798327      -1.35772762       0.00000000
Si      -1.36252818      -1.36111095       1.35758884       0.00000000
Si      -2.71202436       0.00371412       2.71424091       0.00000000
Si      -0.00156384       2.71481936      -2.71382457       0.00000000
Si       2.71472850       2.71475241      -0.00041634       0.00000000
Si       2.71560816      -2.71417464      -0.00024287       0.00000000
Si       2.71438641      -0.00232947      -2.71562872       0.00000000
Si      -2.71603170      -2.71495656      -0.00114494       0.00000000
