10
Lattice="16.28999089631971 0.0 0.0 0.0 16.28999089631971 0.0 0.0 0.0 34.69518985606464" Properties=species:S:1:pos:R:3:initial_magmoms:R:1 pbc="T T T"
Si      -0.38436255      -0.60690024       2.24911694       0.00000000
Si       0.71765595       2.23888131       0.39757240       0.00000000
Si      -1.67361831       0.89560791      -1.44352888       0.00000000
Si       1.56250422      -1.72579518      -0.78810168       0.00000000
Si      -0.09226656      -3.09695706      -1.91285097       0.00000000
Si       3.00874671       2.14452963       0.04434048       0.00000000
Si       1.66824261       0.00257382       3.36165352       0.00000000
Si      -2.17324890       0.81715527       3.00026822       0.00000000
Si      -0.66510441      -3.01213503       2.32780567       0.00000000
Si      -0.39794841       2.62396062      -2.81253244       0.00000000
