10
Lattice="16.28999089631971 0.0 0.0 0.0 16.28999089631971 0.0 0.0 0.0 34.69518985606464" Properties=species:S:1:pos:R:3:initial_magmoms:R:1 pbc="T T T"
Si      -1.33323876      -1.33604716       1.38968885       0.00000000
Si       1.38365698       1.37549502       1.38732958       0.00000000
Si       1.27228062      -1.49760486      -1.47390106       0.00000000
Si      -1.57097502       1.20979314      -1.50228521       0.00000000
Si       2.06663804       0.44150787      -2.50465409       0.00000000
Si       0.26360545       2.01969936      -2.68958099       0.00000000
Si      -2.69576694      -2.70571103       0.00229335       0.00000000
Si      -2.67990048       2.73271266       0.00948220       0.00000000
Si      -2.69278587       0.01557324       2.74745117       0.00000000
Si       2.74264046      -2.70071000      -0.00183191       0.00000000
