10
Lattice="16.28999089631971 0.0 0.0 0.0 16.28999089631971 0.0 0.0 0.0 34.69518985606464" Properties=species:S:1:pos:R:3:initial_magmoms:R:1 pbc="T T T"
Si       1.83458047       0.80990622      -1.18729577       0.00000000
Si      -1.10892546       1.52291952       1.51176741       0.00000000
Si       1.57097502      -1.20979314       1.50228521       0.00000000
Si      -1.98575100      -0.89441874      -1.35986975       0.00000000
Si      -2.49570945       2.83400388       0.11751961       0.00000000
Si      -2.66929569      -2.68199537       0.12112098       0.00000000
Si      -3.43300347       1.09643103      -1.17274845       0.00000000
Si      -2.47938687       0.16405659       2.89134955       0.00000000
Si       2.77582644       2.65885380       0.08322340       0.00000000
Si       3.63761306      -0.76828527      -1.00236888       0.00000000
