10
Lattice="16.28999089631971 0.0 0.0 0.0 16.28999089631971 0.0 0.0 0.0 34.69518985606464" Properties=species:S:1:pos:R:3:initial_magmoms:R:1 pbc="T T T"
Si      -1.35407367      -1.34640108      -1.36601978       0.00000000
Si       1.35599055       1.36816452      -1.35970525       0.00000000
Si       1.23186609      -1.53569088       1.31539947       0.00000000
Si      -1.57687200       1.14994368       1.37091180       0.00000000
Si      -0.37305729      -2.61661057       2.70896724       0.00000000
Si       0.00110772      -2.71049147      -2.72454539       0.00000000
Si       2.71896783       0.00648342      -2.72249837       0.00000000
Si      -2.71448415       0.00695583      -2.72707814       0.00000000
Si      -2.73735531      -2.70674151      -0.01734760       0.00000000
Si       0.00115659       2.72056032      -2.72419844       0.00000000
