10
Lattice="16.28999089631971 0.0 0.0 0.0 16.28999089631971 0.0 0.0 0.0 34.69518985606464" Properties=species:S:1:pos:R:3:initial_magmoms:R:1 pbc="T T T"
Si       1.35814617       1.35609363      -1.35686024       0.00000000
Si      -1.35648459       1.35685926       1.35790110       0.00000000
Si       1.35801585      -1.35883035       1.35717250       0.00000000
Si      -1.35912357      -1.35879777      -1.35640921       0.00000000
Si      -0.00169416      -2.71521720       2.71264493       0.00000000
Si      -2.71213839       0.00026064      -2.71628793       0.00000000
Si      -2.71445157       2.71476108       0.00041634       0.00000000
Si      -2.71378368      -2.71546155       0.00013878       0.00000000
Si       2.71394658      -0.00161271       2.71552464       0.00000000
Si       2.71564074      -2.71534752       0.00020817       0.00000000
