10
Lattice="16.28999089631971 0.0 0.0 0.0 16.28999089631971 0.0 0.0 0.0 34.69518985606464" Properties=species:S:1:pos:R:3:initial_magmoms:R:1 pbc="T T T"
Si      -1.15531938       1.56952521      -1.35651329       0.00000000
Si       0.97448409       1.18126935       1.82042293       0.00000000
Si       1.57687200      -1.14994368      -1.37091180       0.00000000
Si      -1.71742212      -1.20267441       1.28285536       0.00000000
Si       0.77955795      -0.51088698       3.53641329       0.00000000
Si      -2.48508837       0.20900070      -2.74237873       0.00000000
Si       0.22279833      -2.49634476      -2.73693158       0.00000000
Si      -0.20572641       3.42142128       1.72077829       0.00000000
Si       2.80873809      -2.68563456      -0.05551233       0.00000000
Si      -3.01076667       2.51630001      -0.00964527       0.00000000
