10
Lattice="16.28999089631971 0.0 0.0 0.0 16.28999089631971 0.0 0.0 0.0 34.69518985606464" Properties=species:S:1:pos:R:3:initial_magmoms:R:1 pbc="T T T"
Si      -1.52733411       0.93724515       1.47912616       0.00000000
Si       1.33295864       1.37345877      -1.36622795       0.00000000
Si      -1.37068947      -1.35316143      -1.36275843       0.00000000
Si       1.83665907      -0.91702926       1.37434663       0.00000000
Si      -0.13473459       2.41170192       2.62392928       0.00000000
Si      -1.80338445      -0.85889025       3.09123906       0.00000000
Si       2.69581485       2.70861975       0.01519650       0.00000000
Si       2.70412275      -2.70324405       0.02164981       0.00000000
Si       2.69531638       0.00513135      -2.72242898       0.00000000
Si      -0.01962945      -2.70969489      -2.72464948       0.00000000
