10
Lattice="16.28999089631971 0.0 0.0 0.0 16.28999089631971 0.0 0.0 0.0 34.69518985606464" Properties=species:S:1:pos:R:3:initial_magmoms:R:1 pbc="T T T"
Si       1.35169214      -1.34526078       1.36119714       0.00000000
Si      -1.35573525      -1.35355239      -1.35467444       0.00000000
Si       1.35731298       1.36112724      -1.35630512       0.00000000
Si      -1.35231435       1.35891180       1.36518709       0.00000000
Si       0.00097740      -2.71125873      -2.71264493       0.00000000
Si      -2.71409319       0.00358380      -2.71243676       0.00000000
Si       2.71192892       2.71533123       0.00176946       0.00000000
Si       2.71404988      -2.71358820       0.00499611       0.00000000
Si       2.71566259       0.00306252      -2.71233268       0.00000000
Si      -2.71614573      -2.71226871       0.00412873       0.00000000
