10
Lattice="16.28999089631971 0.0 0.0 0.0 16.28999089631971 0.0 0.0 0.0 34.69518985606464" Properties=species:S:1:pos:R:3:initial_magmoms:R:1 pbc="T T T"
Si      -1.34058555      -1.33765335      -1.39818224       0.00000000
Si       1.37318184       1.37411037      -1.39644748       0.00000000
Si      -1.49094225       1.19780370       1.58904058       0.00000000
Si       1.21689558      -1.76627583       1.44491668       0.00000000
Si       2.60949510      -0.29181906       2.58971981       0.00000000
Si      -2.70471015      -2.71490769      -0.04073218       0.00000000
Si      -2.71554300       2.70852201      -0.00850033       0.00000000
Si       2.71153566       2.73266379      -0.01460668       0.00000000
Si       2.74422969      -2.70352098      -0.03420948       0.00000000
Si       0.00935046      -2.69707014      -2.75750584       0.00000000
