10
Lattice="16.28999089631971 0.0 0.0 0.0 16.28999089631971 0.0 0.0 0.0 34.69518985606464" Properties=species:S:1:pos:R:3:initial_magmoms:R:1 pbc="T T T"
Si       1.52733411      -0.93724515      -1.47912616       0.00000000
Si       1.39259952       1.47445677       1.14480312       0.00000000
Si      -0.27605034      -1.79613540       1.61211290       0.00000000
Si      -1.21689558       1.76627583      -1.44491668       0.00000000
Si       0.15664464      -2.29040658      -2.84188459       0.00000000
Si      -0.24435000       1.98485505       3.08981655       0.00000000
Si       1.47973473      -1.20767544       3.18151599       0.00000000
Si       3.36399318      -1.85427441      -0.10477953       0.00000000
Si      -2.55748113       0.42862248      -2.84309892       0.00000000
Si      -2.61029331      -2.06557200       2.14086789       0.00000000
