10
Lattice="16.28999089631971 0.0 0.0 0.0 16.28999089631971 0.0 0.0 0.0 34.69518985606464" Properties=species:S:1:pos:R:3:initial_magmoms:R:1 pbc="T T T"
Si      -0.95322564       2.16432198       0.33071473       0.00000000
Si       0.20795814      -0.99979875       2.17327321       0.00000000
Si       1.86388651       0.30449268      -1.54147345       0.00000000
Si      -1.71119934      -1.53394785      -0.86744962       0.00000000
Si       0.92989836      -3.14915022       1.59705518       0.00000000
Si      -2.88614817       1.52808345       1.70981461       0.00000000
Si       0.73792071      -0.25751232      -3.60254236       0.00000000
Si      -2.99188656      -0.20028555      -2.43994059       0.00000000
Si      -0.56798343      -3.34208898      -1.95729553       0.00000000
Si      -1.91431935      -1.92611331       2.87914724       0.00000000
