10
Lattice="16.28999089631971 0.0 0.0 0.0 16.28999089631971 0.0 0.0 0.0 34.69518985606464" Properties=species:S:1:pos:R:3:initial_magmoms:R:1 pbc="T T T"
Si      -0.73989180       2.07428715       0.80201446       0.00000000
Si      -1.18563507      -0.56677797      -1.97554521       0.00000000
Si       0.35302059      -2.04952635       1.23147176       0.00000000
Si       2.12227749       0.92631456      -0.70587403       0.00000000
Si       2.84421771      -1.22303691      -1.28209207       0.00000000
Si       1.53614700      -3.03197625      -0.49277606       0.00000000
Si       1.00082502       2.83755510       2.22340779       0.00000000
Si       0.20312001       0.39216546      -3.74659687       0.00000000
Si      -0.97182882       3.45419676      -1.16933264       0.00000000
Si       3.04021899       1.77787431       1.41112355       0.00000000
