10
Lattice="16.28999089631971 0.0 0.0 0.0 16.28999089631971 0.0 0.0 0.0 34.69518985606464" Properties=species:S:1:pos:R:3:initial_magmoms:R:1 pbc="T T T"
Si      -1.35659862       1.35247037       1.36300130       0.00000000
Si       1.35602847       1.34486982      -1.38392598       0.00000000
Si       1.35935163      -1.36467846       1.36119714       0.00000000
Si      -1.36721970      -1.36428750      -1.36488871       0.00000000
Si      -0.18847530       2.57837861      -2.76738357       0.00000000
Si      -2.71308321       2.71291121       0.00510020       0.00000000
Si      -2.70940167      -2.71995759       0.00027756       0.00000000
Si       0.00154755       2.71102157       2.71909824       0.00000000
Si      -2.71292031      -0.00436572       2.71909824       0.00000000
Si       2.71855665       2.71453369       0.00346952       0.00000000
