10
Lattice="16.28999089631971 0.0 0.0 0.0 16.28999089631971 0.0 0.0 0.0 34.69518985606464" Properties=species:S:1:pos:R:3:initial_magmoms:R:1 pbc="T T T"
Si       2.09297178      -0.93801078       0.36593037       0.00000000
Si       0.19894977       2.32297029       0.11133693       0.00000000
Si      -1.63683549      -0.88078401       1.52853214       0.00000000
Si       1.63694952      -0.51039828      -1.94501343       0.00000000
Si      -1.48463802       2.70635544      -1.54452663       0.00000000
Si       1.72408473      -3.19253049       0.09169944       0.00000000
Si       0.24435000      -1.98485505      -3.08981655       0.00000000
Si      -0.19059300       2.98954080       2.36097429       0.00000000
Si      -0.35614827      -2.21444631       3.10102311       0.00000000
Si      -2.46348783       0.97922448      -2.94569266       0.00000000
