10
Lattice="16.28999089631971 0.0 0.0 0.0 16.28999089631971 0.0 0.0 0.0 34.69518985606464" Properties=species:S:1:pos:R:3:initial_magmoms:R:1 pbc="T T T"
Si      -1.08214470       1.45503487      -1.42371791       0.00000000
Si       1.28215332       1.54516581       1.30259694       0.00000000
Si       1.64330262      -1.26177453      -1.38631648       0.00000000
Si      -1.58032548      -1.06950366       1.61849682       0.00000000
Si       2.08898073      -0.28585692       2.51460468       0.00000000
Si       0.10326231      -1.45288881       3.27436037       0.00000000
Si      -2.41367301       0.10124165      -2.77166149       0.00000000
Si      -2.71319724       2.53521989      -0.09072797       0.00000000
Si      -2.55917529      -2.79663462       0.21733079       0.00000000
Si       0.30494880      -2.62032795      -2.76815727       0.00000000
