10
Lattice="16.28999089631971 0.0 0.0 0.0 16.28999089631971 0.0 0.0 0.0 34.69518985606464" Properties=species:S:1:pos:R:3:initial_magmoms:R:1 pbc="T T T"
Si      -1.35622813      -1.35524655      -1.35973995       0.00000000
Si       1.35889714       1.35941679      -1.35980934       0.00000000
Si       1.36912726      -1.36428750       1.35054572       0.00000000
Si      -1.36235774       1.36832742       1.35620103       0.00000000
Si      -2.69531638      -0.00513135       2.72242898       0.00000000
Si      -2.71404988       2.71358820      -0.00499611       0.00000000
Si       2.71718992      -2.71054197      -0.00343483       0.00000000
Si      -2.71494583      -2.71482624      -0.00222049       0.00000000
Si       0.00228060      -2.71334385      -2.71736348       0.00000000
Si      -2.71307248       0.00232947      -2.71764104       0.00000000
