10
Lattice="16.28999089631971 0.0 0.0 0.0 16.28999089631971 0.0 0.0 0.0 34.69518985606464" Properties=species:S:1:pos:R:3:initial_magmoms:R:1 pbc="T T T"
Si      -1.36285621      -1.33516098      -1.38142445       0.00000000
Si       1.35745384       1.37428956      -1.37903048       0.00000000
Si      -1.39794168       1.30069134       1.46760735       0.00000000
Si       0.97973761      -1.82865024       1.27820620       0.00000000
Si      -2.69581485      -2.70861975      -0.01519650       0.00000000
Si       2.71095737       2.72090241      -0.00357361       0.00000000
Si      -0.00049847      -2.70348840      -2.73762549       0.00000000
Si       2.72014492      -2.72629440      -0.01443321       0.00000000
Si       2.71511131       0.01347183      -2.73800713       0.00000000
Si      -2.72850888       2.72756502       0.00440629       0.00000000
