10
Lattice="16.28999089631971 0.0 0.0 0.0 16.28999089631971 0.0 0.0 0.0 34.69518985606464" Properties=species:S:1:pos:R:3:initial_magmoms:R:1 pbc="T T T"
Si       1.36532420       1.32372071       1.36272373       0.00000000
Si       1.35141579      -1.36111468      -1.35897665       0.00000000
Si      -1.36145795       1.35407875      -1.35831744       0.00000000
Si      -1.37447366      -1.35898069       1.38628178       0.00000000
Si      -0.13069958       2.52887935       2.68162742       0.00000000
Si       2.71148907      -2.71225615       0.00284501       0.00000000
Si       2.71236873      -0.00057341      -2.71542055       0.00000000
Si       2.71585479       2.71380343       0.00322665       0.00000000
Si      -0.00285308       2.71456906      -2.71548994       0.00000000
Si      -2.71282748      -2.71753411       0.00444099       0.00000000
