10
Lattice="16.28999089631971 0.0 0.0 0.0 16.28999089631971 0.0 0.0 0.0 34.69518985606464" Properties=species:S:1:pos:R:3:initial_magmoms:R:1 pbc="T T T"
Si      -1.36293380      -1.35428544       1.38312452       0.00000000
Si       1.35252612       1.36268849       1.38683690       0.00000000
Si      -1.47035984       1.20310514      -1.47206915       0.00000000
Si       1.33507953      -1.39789377      -1.49198074       0.00000000
Si       2.69037495      -2.71588509       0.01746904       0.00000000
Si       2.70782154       2.71390490      -0.00880911       0.00000000
Si      -2.74264046       2.70071000       0.00183191       0.00000000
Si       2.70837540      -0.00019535       2.74956064       0.00000000
Si      -2.73282337      -2.72749986      -0.00410444       0.00000000
Si      -0.00680922      -2.71630863       2.75004637       0.00000000
