10
Lattice="16.28999089631971 0.0 0.0 0.0 16.28999089631971 0.0 0.0 0.0 34.69518985606464" Properties=species:S:1:pos:R:3:initial_magmoms:R:1 pbc="T T T"
Si      -1.35965024       1.35611477       1.36612386       0.00000000
Si       1.35612458      -1.36202319       1.36692185       0.00000000
Si       1.36293380       1.35428544      -1.38312452       0.00000000
Si      -1.36988957      -1.37321442      -1.38722896       0.00000000
Si      -0.10742603       2.55739058      -2.85519367       0.00000000
Si       2.71648619      -2.71116099       0.01016570       0.00000000
Si      -2.71328751      -2.71458189       0.01113716       0.00000000
Si      -2.71294542       2.71894828       0.00839624       0.00000000
Si       2.71545992       2.71697393       0.00371239       0.00000000
Si      -2.71418346      -0.00034209       2.72374740       0.00000000
