10
Lattice="10.86 0.0 0.0 0.0 10.86 0.0 0.0 0.0 10.86" Properties=species:S:1:pos:R:3:initial_magmoms:R:1 pbc="T T T"
Si      -1.15969596       1.22471478      -1.40640258       0.00000000
Si      -1.15969596      -1.49028522       1.30859742       0.00000000
Si       1.55530404       1.22471478       1.30859742       0.00000000
Si      -2.51719596       2.58221478      -0.04890258       0.00000000
Si      -2.51719596      -0.13278522       2.66609742       0.00000000
Si       0.19780404       2.58221478       2.66609742       0.00000000
Si      -2.51719596      -0.13278522      -2.76390258       0.00000000
Si      -2.51719596      -2.84778522      -0.04890258       0.00000000
Si       0.27914544       2.65156674      -2.79439746       0.00000000
Si       0.19780404      -2.84778522       2.66609742       0.00000000
