10
Lattice="10.86 0.0 0.0 0.0 10.86 0.0 0.0 0.0 10.86" Properties=species:S:1:pos:R:3:initial_magmoms:R:1 pbc="T T T"
Si      -0.91940760      -1.54494360       1.46858694       0.00000000
Si       1.79559240       1.17005640       1.46858694       0.00000000
Si       1.79559240      -1.54494360      -1.24641306       0.00000000
Si      -2.37538608      -0.16550640      -2.41134354       0.00000000
Si       0.34087368       2.42034648       2.72099472       0.00000000
Si      -2.27690760      -2.90244360       0.11108694       0.00000000
Si      -2.34569484      -0.29693412       2.85265050       0.00000000
Si       0.55682478       2.66255706      -2.77708662       0.00000000
Si       0.43809240      -2.90244360      -2.60391306       0.00000000
Si       3.15309240       2.52755640       0.11108694       0.00000000
