10
Lattice="10.86 0.0 0.0 0.0 10.86 0.0 0.0 0.0 10.86" Properties=species:S:1:pos:R:3:initial_magmoms:R:1 pbc="T T T"
Si      -1.32112986       1.31125812      -1.28975532       0.00000000
Si       1.39387014       1.31125812       1.42524468       0.00000000
Si      -1.32112986      -1.40374188       1.42524468       0.00000000
Si       2.62121304       0.16723314      -2.52364680       0.00000000
Si      -2.39818122      -0.17087124      -2.79314856       0.00000000
Si       0.03637014       2.66875812      -2.64725532       0.00000000
Si      -2.67862986       2.66875812       0.06774468       0.00000000
Si       2.75137014       2.66875812       0.06774468       0.00000000
Si      -2.79527712      -2.62554618       0.07721460       0.00000000
Si       0.03637014       2.66875812       2.78274468       0.00000000
