10
Lattice="10.86 0.0 0.0 0.0 10.86 0.0 0.0 0.0 10.86" Properties=species:S:1:pos:R:3:initial_magmoms:R:1 pbc="T T T"
Si      -1.25902152      -1.37943720       1.16493048       0.00000000
Si      -1.25902152       1.33556280      -1.55006952       0.00000000
Si       1.45597848      -1.37943720      -1.55006952       0.00000000
Si       2.37538608       0.16550640       2.41134354       0.00000000
Si      -2.46278736      -0.07862640       2.73222396       0.00000000
Si       0.09847848      -2.73693720       2.52243048       0.00000000
Si      -2.61652152      -2.73693720      -0.19256952       0.00000000
Si      -2.64576750       2.83578492      -0.29304624       0.00000000
Si      -2.61652152      -0.02193720      -2.90756952       0.00000000
Si       2.81347848      -2.73693720      -0.19256952       0.00000000
