10
Lattice="10.86 0.0 0.0 0.0 10.86 0.0 0.0 0.0 10.86" Properties=species:S:1:pos:R:3:initial_magmoms:R:1 pbc="T T T"
Si       1.19968248       1.33782168      -1.43189100       0.00000000
Si      -1.51531752       1.33782168       1.28310900       0.00000000
Si      -1.51531752      -1.37717832      -1.43189100       0.00000000
Si       2.46758748       0.06661524       2.54301018       0.00000000
Si       2.52600342      -2.66358876      -0.00701556       0.00000000
Si       2.55718248       2.69532168      -0.07439100       0.00000000
Si      -0.15781752       2.69532168       2.64060900       0.00000000
Si       2.55718248      -0.01967832      -2.78939100       0.00000000
Si      -0.15781752       2.69532168      -2.78939100       0.00000000
Si      -2.87281752      -0.01967832       2.64060900       0.00000000
