10
Lattice="10.86 0.0 0.0 0.0 10.86 0.0 0.0 0.0 10.86" Properties=species:S:1:pos:R:3:initial_magmoms:R:1 pbc="T T T"
Si       1.53472434       1.09034400       1.47552648       0.00000000
Si      -1.73131206      -0.33042636      -1.74811248       0.00000000
Si      -1.18027566      -1.62465600       1.47552648       0.00000000
Si       1.53472434      -1.62465600      -1.23947352       0.00000000
Si      -2.65550892       2.48625582      -0.05216058       0.00000000
Si       0.17722434       2.44784400       2.83302648       0.00000000
Si      -2.53777566      -0.26715600       2.83302648       0.00000000
Si       2.59889574      -0.21584250      -2.83134318       0.00000000
Si       3.08182908       2.39861562       0.08482746       0.00000000
Si      -2.53777566      -2.98215600       0.11802648       0.00000000
