10
Lattice="10.86 0.0 0.0 0.0 10.86 0.0 0.0 0.0 10.86" Properties=species:S:1:pos:R:3:initial_magmoms:R:1 pbc="T T T"
Si       1.13503290      -1.41980382      -1.28654076       0.00000000
Si       1.13503290       1.29519618       1.42845924       0.00000000
Si      -0.94649244       1.90860156      -1.22354190       0.00000000
Si      -1.57996710      -1.41980382       1.42845924       0.00000000
Si       2.13252390       0.07056828      -2.79944736       0.00000000
Si       2.63610210       2.61103722       0.16920966       0.00000000
Si       2.49253290      -2.77730382       0.07095924       0.00000000
Si       2.49253290      -0.06230382       2.78595924       0.00000000
Si      -0.22246710      -2.77730382      -2.64404076       0.00000000
Si      -0.22246710       2.65269618       2.78595924       0.00000000
