10
Lattice="16.290000149 0.0 0.0 0.0 16.290000149 0.0 0.0 0.0 29.1751946751" Properties=species:S:1:pos:R:3:initial_magmoms:R:1 pbc="T T T"
Si      -1.36933741       1.38790801       1.31078315       0.00000000
Si      -1.36101322      -1.34561917      -1.36770395       0.00000000
Si       1.35365014       1.34728075      -1.37432672       0.00000000
Si       1.34793235      -1.33284781       1.40796572       0.00000000
Si       0.01335780       2.73883773       2.65132499       0.00000000
Si       2.67037085      -2.72797392       0.04280001       0.00000000
Si      -2.69553890      -2.70939518       0.00227567       0.00000000
Si      -0.06343326      -2.61708789       2.79060737       0.00000000
Si      -0.01249443      -2.69643974      -2.74124294       0.00000000
Si       2.72751617       2.71106327      -0.04186640       0.00000000
