10
Lattice="16.290000149 0.0 0.0 0.0 16.290000149 0.0 0.0 0.0 29.1751946751" Properties=species:S:1:pos:R:3:initial_magmoms:R:1 pbc="T T T"
Si       1.32892029      -1.35993808       1.37423919       0.00000000
Si      -1.37093546      -1.36906048      -1.32461219       0.00000000
Si      -1.36511993       1.35070165       1.35116162       0.00000000
Si       1.36801629       1.36376623      -1.34544328       0.00000000
Si      -2.69606181       0.01387908      -2.68519739       0.00000000
Si       0.00722299      -2.71784480      -2.66664197       0.00000000
Si       2.68432976       0.00858483       2.71168847       0.00000000
Si      -0.02328818       2.71329500       2.70433632       0.00000000
Si       2.72577152       0.00819387      -2.70133127       0.00000000
Si       2.71256033      -2.71463078       0.03854043       0.00000000
