10
Lattice="16.290000149 0.0 0.0 0.0 16.290000149 0.0 0.0 0.0 29.1751946751" Properties=species:S:1:pos:R:3:initial_magmoms:R:1 pbc="T T T"
Si       0.44343009      -0.25668153       2.28191364       0.00000000
Si      -1.71888824       1.63106884       0.09741598       0.00000000
Si      -0.04557942      -2.29364831      -0.66959989       0.00000000
Si       1.86416246       0.90552853      -1.27799023       0.00000000
H       -0.91930987       0.16588107      -2.55072892       0.00000000
Si       2.15881598      -2.68027517       0.13610228       0.00000000
Si      -0.32913945       3.37066167      -0.81710968       0.00000000
Si       2.07673067      -1.99635581       2.36683767       0.00000000
Si       3.46001232       1.71888824       0.28104465       0.00000000
Si      -3.77352966       0.63047188      -0.63771141       0.00000000
