10
Lattice="16.290000149 0.0 0.0 0.0 16.290000149 0.0 0.0 0.0 29.1751946751" Properties=species:S:1:pos:R:3:initial_magmoms:R:1 pbc="T T T"
Si       1.38297214      -1.34418565      -1.33619474       0.00000000
Si      -1.29731932       1.30249954      -1.46115210       0.00000000
Si       1.38737044       1.36003582       1.33003877       0.00000000
Si      -1.34934958      -1.39119859       1.34532658       0.00000000
Si      -2.77814550       0.05390361       2.46615003       0.00000000
Si      -2.65847915       2.67333563      -0.19879978       0.00000000
Si       2.71050941      -0.01430262       2.66340352       0.00000000
Si       0.01769094      -2.68468976      -2.70821662       0.00000000
Si      -2.70873380      -2.69909012      -0.04487145       0.00000000
Si       2.72730441       0.02712285      -2.69949324       0.00000000
