10
Lattice="16.290000149 0.0 0.0 0.0 16.290000149 0.0 0.0 0.0 29.1751946751" Properties=species:S:1:pos:R:3:initial_magmoms:R:1 pbc="T T T"
Si      -1.41136561      -1.28424008       1.38264165       0.00000000
Si       1.32243850      -1.39512611      -1.36516571       0.00000000
Si       1.39957165       1.37085238       1.31469262       0.00000000
Si      -1.34793235       1.33284781      -1.40796572       0.00000000
Si       0.00806355       2.72585459       2.62696370       0.00000000
Si      -2.64158642      -2.71668332      -0.04522155       0.00000000
Si       2.58409901      -2.78593212       0.06625687       0.00000000
Si       2.68956047      -0.03629412      -2.74173892       0.00000000
Si      -2.71726976       2.72075582      -0.09718257       0.00000000
Si       2.73973368       2.71914311      -0.05814616       0.00000000
