10
Lattice="16.290000149 0.0 0.0 0.0 16.290000149 0.0 0.0 0.0 29.1751946751" Properties=species:S:1:pos:R:3:initial_magmoms:R:1 pbc="T T T"
Si       1.37868787       1.31867551      -1.36350272       0.00000000
Si      -1.37277460      -1.32729292      -1.36417375       0.00000000
Si       1.35640315      -1.37005417       1.33876216       0.00000000
Si      -1.36857178       1.37966527       1.32303673       0.00000000
Si      -0.05668920       2.63950130      -2.64373944       0.00000000
Si       0.04465089      -2.66132990      -2.66550414       0.00000000
Si       2.72591975      -0.00838935       2.66772145       0.00000000
Si      -2.72917775       0.01791900       2.66722547       0.00000000
Si      -0.01511712       2.73360863       2.68455554       0.00000000
Si       0.00001629      -2.72474687       2.69695500       0.00000000
