10
Lattice="16.290000149 0.0 0.0 0.0 16.290000149 0.0 0.0 0.0 29.1751946751" Properties=species:S:1:pos:R:3:initial_magmoms:R:1 pbc="T T T"
Si       0.65632411      -0.43232031       2.12809997       0.00000000
Si      -1.06456780      -1.76480975      -1.05593782       0.00000000
Si      -1.70049683       1.59910786      -0.01374152       0.00000000
Si       1.78450436       0.59486194      -1.44017513       0.00000000
Si      -0.30680586       3.03295368      -1.19133990       0.00000000
H        3.08982207       1.12835944      -0.51368765       0.00000000
H       -0.47024343      -3.05694885       1.24461380       0.00000000
Si      -1.99809884      -0.71719984      -2.88945293       0.00000000
Si      -1.24571260      -1.22981356       3.25220271       0.00000000
Si       0.76344715       1.92784007      -3.06001112       0.00000000
