10
Lattice="16.290000149 0.0 0.0 0.0 16.290000149 0.0 0.0 0.0 29.1751946751" Properties=species:S:1:pos:R:3:initial_magmoms:R:1 pbc="T T T"
Si       1.34356663       1.37875303      -1.31276706       0.00000000
Si      -1.36402687       1.37064061       1.34343019       0.00000000
Si       1.54553005      -1.32295978       1.18684692       0.00000000
Si      -1.40962258      -1.32511006      -1.35620892       0.00000000
Si       2.62705574      -2.74362699      -0.31185366       0.00000000
Si       2.64678293       0.03181437      -2.74477314       0.00000000
Si       2.57378744       2.81119628       0.11509614       0.00000000
Si      -0.05831820       2.71888899      -2.67323556       0.00000000
Si      -2.71124246       0.07983729       2.71300135       0.00000000
Si      -2.78660001      -2.64531683       0.00650607       0.00000000
