10
Lattice="16.290000149 0.0 0.0 0.0 16.290000149 0.0 0.0 0.0 29.1751946751" Properties=species:S:1:pos:R:3:initial_magmoms:R:1 pbc="T T T"
Si       1.38145554      -1.45212808       1.15390812       0.00000000
Si      -1.23177190      -1.36168649      -1.44408461       0.00000000
Si       1.40986530       1.29413788      -1.38882679       0.00000000
Si      -1.21599834       1.28596030       1.60711560       0.00000000
H        1.61849134       1.51605656       2.10676998       0.00000000
Si       2.23091389       0.21011657       2.54705285       0.00000000
Si      -2.50480092       2.63330622       0.10561420       0.00000000
Si      -2.54407611      -2.69692844      -0.07675994       0.00000000
Si       0.06207956       2.62972242      -2.76440805       0.00000000
Si      -2.70111171      -0.06898326      -2.71553959       0.00000000
