10
Lattice="16.290000149 0.0 0.0 0.0 16.290000149 0.0 0.0 0.0 29.1751946751" Properties=species:S:1:pos:R:3:initial_magmoms:R:1 pbc="T T T"
Si       1.37394748       1.34289874      -1.34240906       0.00000000
Si       1.36288657      -1.39378870       1.30459801       0.00000000
Si      -1.35345466      -1.35394336      -1.36151881       0.00000000
Si      -1.35104374       1.37134108       1.35069481       0.00000000
Si       0.00405621       2.69089625      -2.68397203       0.00000000
Si      -2.74004319       0.01185912       2.66378280       0.00000000
Si       2.78262525      -0.08340480       2.61882382       0.00000000
Si       0.01371618      -2.75116926       2.65774353       0.00000000
Si       0.01511712      -2.73360863      -2.68455554       0.00000000
Si       0.02596626       2.73727389       2.68729801       0.00000000
