10
Lattice="16.290000149 0.0 0.0 0.0 16.290000149 0.0 0.0 0.0 29.1751946751" Properties=species:S:1:pos:R:3:initial_magmoms:R:1 pbc="T T T"
Si       1.43381812      -1.21319776       1.38092031       0.00000000
Si      -1.43558396       1.24585921       1.36793735       0.00000000
Si      -1.35868131      -1.41305977      -1.31008294       0.00000000
Si       1.36755040       1.42692256      -1.29995915       0.00000000
H       -1.18090772      -1.44011746       3.05397185       0.00000000
Si      -0.04746092      -2.41241870       2.76709216       0.00000000
Si       2.57591003      -2.64248237      -0.08075694       0.00000000
Si      -0.01452905       2.68402187       2.53415741       0.00000000
Si       2.56598942       0.02402775      -2.77464854       0.00000000
Si      -2.72744613       2.66012444       0.01126163       0.00000000
