10
Lattice="16.290000149 0.0 0.0 0.0 16.290000149 0.0 0.0 0.0 29.1751946751" Properties=species:S:1:pos:R:3:initial_magmoms:R:1 pbc="T T T"
Si       1.54013806      -1.26605881      -1.20085101       0.00000000
Si       1.39421224       1.32036967       1.36698041       0.00000000
Si      -1.21780783      -1.43567029       1.44127796       0.00000000
Si      -1.47201328       1.21213891      -1.45245789       0.00000000
H        0.35805420      -1.80941177      -2.24438938       0.00000000
Si      -2.67146228       2.67822263      -0.01648398       0.00000000
Si       2.85849820       2.49479723      -0.04828495       0.00000000
Si      -2.65033415      -0.06696819       2.72900978       0.00000000
Si      -0.14374296       2.54440028      -2.85409259       0.00000000
Si       0.06434550       2.75778300       2.68501067       0.00000000
