10
Lattice="16.290000149 0.0 0.0 0.0 16.290000149 0.0 0.0 0.0 29.1751946751" Properties=species:S:1:pos:R:3:initial_magmoms:R:1 pbc="T T T"
Si      -1.38730528      -1.34447887      -1.27882756       0.00000000
Si       1.33009301      -1.40831938       1.31104572       0.00000000
Si      -1.42457680       1.35852085       1.27259282       0.00000000
Si       1.29617902       1.31714425      -1.46574428       0.00000000
Si       2.62836220       2.67546962      -0.08670868       0.00000000
Si       2.66551155      -0.03217275       2.65736426       0.00000000
Si      -0.06851574       2.70677900       2.62970617       0.00000000
Si      -0.12847923      -2.74227492      -2.64593633       0.00000000
Si      -2.74967058      -0.02849121       2.65406746       0.00000000
Si       2.67865106      -2.73481409      -0.09764938       0.00000000
