10
Lattice="16.290000149 0.0 0.0 0.0 16.290000149 0.0 0.0 0.0 29.1751946751" Properties=species:S:1:pos:R:3:initial_magmoms:R:1 pbc="T T T"
Si       1.71888824      -1.63106884      -0.09741598       0.00000000
Si      -2.05464143      -1.00059697      -0.73512738       0.00000000
Si       1.38974878       1.73959283      -0.91452565       0.00000000
Si      -1.00608670       1.23872419       1.84463086       0.00000000
H        0.79957837      -1.46518777      -2.64814490       0.00000000
H       -0.60416353       0.56671282      -3.10707071       0.00000000
Si      -2.36003169       2.64829790       0.53034669       0.00000000
Si       2.16231833      -1.88775038       2.18449766       0.00000000
Si      -3.47083051       0.94586257      -0.72173597       0.00000000
Si       3.58305069      -0.72554032      -1.37540620       0.00000000
