10
Lattice="16.290000149 0.0 0.0 0.0 16.290000149 0.0 0.0 0.0 29.1751946751" Properties=species:S:1:pos:R:3:initial_magmoms:R:1 pbc="T T T"
Si       1.31082373      -1.42667821       1.29701245       0.00000000
Si      -1.35094600      -1.38697948      -1.32256992       0.00000000
Si       1.37634211       1.33006222      -1.35498357       0.00000000
Si      -1.29889945       1.35856972       1.41715591       0.00000000
Si       2.66074346      -0.08281836       2.60925436       0.00000000
Si       0.00853596       2.68732874      -2.68210482       0.00000000
Si      -2.67020307       2.70096347       0.06118038       0.00000000
Si      -2.69063724      -0.02811654      -2.68493482       0.00000000
Si      -2.63080570      -0.03844440       2.75933156       0.00000000
Si       0.03650589      -2.73830016      -2.65727673       0.00000000
