10
Lattice="16.290000149 0.0 0.0 0.0 16.290000149 0.0 0.0 0.0 29.1751946751" Properties=species:S:1:pos:R:3:initial_magmoms:R:1 pbc="T T T"
Si       1.41685534      -1.33683153       1.26042968       0.00000000
Si      -1.49022550       1.23786571       1.28386611       0.00000000
Si      -1.03514806      -1.85021333      -0.95283852       0.00000000
Si       0.86174101       1.73231608      -1.37052403       0.00000000
H       -1.96529078       0.77926962      -2.13511077       0.00000000
Si      -1.85520296      -0.63375268      -2.68623019       0.00000000
Si      -0.07411950       2.66900738       2.52025835       0.00000000
Si       2.64829790      -2.54141433      -0.33509170       0.00000000
Si      -0.04271238      -2.77313958       2.47871287       0.00000000
Si      -0.83872324       3.40389816      -1.25162460       0.00000000
