10
Lattice="16.290000149 0.0 0.0 0.0 16.290000149 0.0 0.0 0.0 29.1751946751" Properties=species:S:1:pos:R:3:initial_magmoms:R:1 pbc="T T T"
Si       1.33630129       1.33557639      -1.33147419       0.00000000
Si      -1.33195186       1.41832959       1.28575083       0.00000000
Si       1.43014798      -1.34688165       1.26561995       0.00000000
Si      -1.36120870      -1.28328508      -1.40918524       0.00000000
Si       0.04883742      -2.68963378       2.59994747       0.00000000
Si      -2.68382639       0.04572766       2.62086609       0.00000000
Si       0.05207913       2.76829819       2.61252198       0.00000000
Si       2.77654908       0.04149715       2.60470303       0.00000000
Si      -0.04087161      -2.76948736      -2.61996457       0.00000000
Si      -2.71453304      -2.67619453      -0.09925401       0.00000000
