10
Lattice="16.290000149 0.0 0.0 0.0 16.290000149 0.0 0.0 0.0 29.1751946751" Properties=species:S:1:pos:R:3:initial_magmoms:R:1 pbc="T T T"
Si      -1.29036349      -1.43634584       1.28242486       0.00000000
Si       1.30007233      -1.41252986      -1.34232153       0.00000000
Si      -1.43441596       1.62708643      -0.92823799       0.00000000
Si       1.19226511       1.14568109       1.69318242       0.00000000
Si      -0.80386264       2.03409208       2.66684619       0.00000000
Si      -2.32093406       0.18622451       2.60044345       0.00000000
Si      -0.08786826       2.64592820      -2.56374106       0.00000000
Si       2.62815011       2.57035889       0.34155400       0.00000000
Si       0.23876253      -2.43197436       2.78646449       0.00000000
Si       1.76811662      -0.58750651       3.22435499       0.00000000
