10
Lattice="16.290000149 0.0 0.0 0.0 16.290000149 0.0 0.0 0.0 29.1751946751" Properties=species:S:1:pos:R:3:initial_magmoms:R:1 pbc="T T T"
Si       0.84838321      -1.87282874      -1.11805181       0.00000000
Si       1.48926439       1.25496532       1.37003797       0.00000000
Si      -1.38406357       1.31527090      -1.43209361       0.00000000
Si      -1.31830084      -1.36168111       1.48495906       0.00000000
H        1.38741931      -1.61314984      -2.50253150       0.00000000
H        2.67123422       0.14385699      -2.05723050       0.00000000
Si       0.00591327       2.55110117       2.71384743       0.00000000
Si      -2.78974398       2.49095279       0.04659279       0.00000000
H       -0.21170484      -0.77522482      -3.67665803       0.00000000
Si       2.52846866      -2.81064405       0.19661164       0.00000000
