10
Lattice="16.290000149 0.0 0.0 0.0 16.290000149 0.0 0.0 0.0 29.1751946751" Properties=species:S:1:pos:R:3:initial_magmoms:R:1 pbc="T T T"
Si      -1.35394499       1.40957371      -1.31428417       0.00000000
Si       1.17415063       1.46575792       1.45185980       0.00000000
Si      -1.48742851      -1.19606068       1.43935823       0.00000000
Si       1.00608670      -1.23872419      -1.84463086       0.00000000
Si      -2.46474381      -0.29286162      -2.56636682       0.00000000
Si      -1.04855473      -2.23932116      -2.57975824       0.00000000
Si       2.39583548       0.50086863      -2.75915651       0.00000000
Si      -0.13027113      -2.54013230       2.81788034       0.00000000
Si       2.54729990       0.11231955       2.81287388       0.00000000
Si       2.46674585       2.95637439       0.17771574       0.00000000
