10
Lattice="16.290000149 0.0 0.0 0.0 16.290000149 0.0 0.0 0.0 29.1751946751" Properties=species:S:1:pos:R:3:initial_magmoms:R:1 pbc="T T T"
Si       1.37600002      -1.34535365       1.33680742       0.00000000
Si       1.36539523       1.34731822      -1.34894430       0.00000000
Si      -1.35084826      -1.36861577      -1.35250367       0.00000000
Si      -1.34851879       1.35082057       1.37353899       0.00000000
Si       0.02205666      -2.70003006       2.67198103       0.00000000
Si       0.00338832       2.71152428      -2.68671450       0.00000000
Si      -2.73251720      -0.01104625      -2.67837040       0.00000000
Si      -2.71748153       2.69402882       0.00802318       0.00000000
Si       2.72565912       2.69080340       0.01447090       0.00000000
Si       2.72785827      -0.01527676      -2.69453345       0.00000000
