10
Lattice="16.290000149 0.0 0.0 0.0 16.290000149 0.0 0.0 0.0 29.1751946751" Properties=species:S:1:pos:R:3:initial_magmoms:R:1 pbc="T T T"
Si      -1.50398567      -1.38122911      -1.17184883       0.00000000
Si       1.35715738      -1.34407162       1.37852211       0.00000000
Si      -1.40261300       1.34628706       1.36915104       0.00000000
Si       1.48742851       1.19606068      -1.43935823       0.00000000
Si      -2.64518163       0.11776041      -2.55676819       0.00000000
Si      -0.22537052      -2.79425631      -2.49894295       0.00000000
Si       2.66157914       2.66181860       0.01250157       0.00000000
Si       0.13348352       2.60563439      -2.75364240       0.00000000
Si      -0.02014096      -2.70567128       2.73724594       0.00000000
Si       2.67760850      -0.00408879       2.77362741       0.00000000
