10
Lattice="16.290000149 0.0 0.0 0.0 16.290000149 0.0 0.0 0.0 29.1751946751" Properties=species:S:1:pos:R:3:initial_magmoms:R:1 pbc="T T T"
Si       0.93353104      -1.04760991       1.83351511       0.00000000
Si      -0.76727530      -2.04268457      -0.88765530       0.00000000
Si      -1.29824785       1.50294799       1.31667654       0.00000000
Si       1.98384509       0.60764959      -1.18025333       0.00000000
H       -0.25845714       2.68135031      -1.44767316       0.00000000
Si      -0.15249069      -1.53186274      -3.07071841       0.00000000
Si       2.28550331      -2.57564450       0.67006670       0.00000000
Si      -1.00359433      -2.08285571       2.73076905       0.00000000
Si       1.99809884       0.71719984       2.88945293       0.00000000
Si       0.29760201       2.31630770       2.87571141       0.00000000
