10
Lattice="16.290000149 0.0 0.0 0.0 16.290000149 0.0 0.0 0.0 29.1751946751" Properties=species:S:1:pos:R:3:initial_magmoms:R:1 pbc="T T T"
Si       1.36019872       1.36350559      -1.34197143       0.00000000
Si      -1.35237952       1.38601837       1.33692412       0.00000000
Si       1.38790801      -1.34197021       1.34731049       0.00000000
Si      -1.35834166      -1.36303318      -1.35760933       0.00000000
Si      -2.70632288       0.03134196       2.67209773       0.00000000
Si       0.05033610      -2.78933673       2.60362355       0.00000000
Si      -0.00052128       2.71609526      -2.69441675       0.00000000
Si       2.69192252       2.71852898       0.04169135       0.00000000
Si       2.71024877       0.00255753      -2.70281921       0.00000000
Si      -2.72823294      -0.01503567      -2.69917231       0.00000000
