10
Lattice="16.290000149 0.0 0.0 0.0 16.290000149 0.0 0.0 0.0 29.1751946751" Properties=species:S:1:pos:R:3:initial_magmoms:R:1 pbc="T T T"
Si      -1.41845828       1.22360707      -1.37523115       0.00000000
Si      -1.31292840      -1.48727701       1.27040468       0.00000000
Si       1.50459328      -1.33499809      -1.24706452       0.00000000
Si       0.66539764       1.87748768       1.29529112       0.00000000
Si       0.04784373       2.60457554      -2.59058224       0.00000000
Si       0.25161534      -2.56442069       2.63259452       0.00000000
Si      -2.75902104       2.52571565       0.04898515       0.00000000
Si       0.06915105      -2.74437633      -2.56371188       0.00000000
Si      -2.70585047      -0.18669969      -2.69427088       0.00000000
Si      -0.98688079       3.53141139       1.20093854       0.00000000
