10
Lattice="16.290000149 0.0 0.0 0.0 16.290000149 0.0 0.0 0.0 29.1751946751" Properties=species:S:1:pos:R:3:initial_magmoms:R:1 pbc="T T T"
Si      -2.05695461       0.61010775      -0.89483240       0.00000000
Si       1.03057057      -1.62257035      -1.31801859       0.00000000
Si      -0.52354431      -1.25417200       1.93069768       0.00000000
Si       1.51707142       1.84786757       0.06640274       0.00000000
Si       2.32093406      -0.18622451      -2.60044345       0.00000000
Si      -3.30028887      -1.17721804      -0.05155257       0.00000000
Si       2.55969659      -2.61819887       0.18602104       0.00000000
Si      -2.12493278       0.28776611       2.99681765       0.00000000
Si       0.77946022       3.17221200      -1.72244514       0.00000000
Si       0.88544296       2.94126867       2.09626691       0.00000000
