10
Lattice="16.290000149 0.0 0.0 0.0 16.290000149 0.0 0.0 0.0 29.1751946751" Properties=species:S:1:pos:R:3:initial_magmoms:R:1 pbc="T T T"
H        0.90725527      -0.89995735       0.80637321       0.00000000
Si       1.34607529       1.30935763      -1.39078153       0.00000000
Si      -1.14209191       1.42928461       1.46167725       0.00000000
Si      -1.31525461      -1.46740321      -1.27685240       0.00000000
H       -1.10662858      -1.24548454       2.21874438       0.00000000
Si      -2.57591003       2.64248237       0.08075694       0.00000000
Si      -0.49420602      -2.55142453       2.65902724       0.00000000
Si      -2.66304035      -0.13181868      -2.65243365       0.00000000
Si      -0.00992061       2.66651012      -2.69389160       0.00000000
Si       2.73193076       2.66242133      -0.09732845       0.00000000
