10
Lattice="16.290000149 0.0 0.0 0.0 16.290000149 0.0 0.0 0.0 29.1751946751" Properties=species:S:1:pos:R:3:initial_magmoms:R:1 pbc="T T T"
Si       1.36060597       1.36174627      -1.34418874       0.00000000
Si      -1.36502056      -1.35567010      -1.34707709       0.00000000
Si       1.35127180      -1.37609776       1.34200060       0.00000000
Si      -1.37402893       1.36500427       1.33295629       0.00000000
Si      -0.02446758       2.69975801      -2.69316222       0.00000000
Si       2.72917775      -0.01791900      -2.66722547       0.00000000
Si       2.72777681      -0.03547962       2.67507360       0.00000000
Si       0.00446346      -2.71955036      -2.68385533       0.00000000
Si      -0.02598255       2.72754875       2.68111286       0.00000000
Si      -2.71386515      -2.70335810       0.03066313       0.00000000
