10
Lattice="16.290000149 0.0 0.0 0.0 16.290000149 0.0 0.0 0.0 29.1751946751" Properties=species:S:1:pos:R:3:initial_magmoms:R:1 pbc="T T T"
Si      -1.36780615       1.35726652      -1.32712126       0.00000000
Si       1.34804638       1.36254448       1.34815657       0.00000000
Si      -1.37634211      -1.33006222       1.35498357       0.00000000
Si       1.37402893      -1.36500427      -1.33295629       0.00000000
Si       2.66867669      -0.07721460       2.62436711       0.00000000
Si       0.00099369       2.70063767      -2.66990959       0.00000000
Si      -2.70787043      -0.00597843      -2.69202439       0.00000000
Si       0.00900837      -2.72067437      -2.68003338       0.00000000
Si      -2.68613957       2.72100017       0.06281419       0.00000000
Si      -0.06551838      -2.75674044       2.65199602       0.00000000
