10
Lattice="16.290000149 0.0 0.0 0.0 16.290000149 0.0 0.0 0.0 29.1751946751" Properties=species:S:1:pos:R:3:initial_magmoms:R:1 pbc="T T T"
Si       0.08208531      -0.68391937      -2.23073538       0.00000000
Si      -0.99869104      -1.77928993       1.15473087       0.00000000
Si       1.83806588       0.88632262       1.18015121       0.00000000
Si      -1.63330057       1.73967428      -0.08492403       0.00000000
H        2.61353504      -0.94081267      -0.82743770       0.00000000
Si       0.54907074       2.33538329       2.50830527       0.00000000
Si      -2.31420629      -0.45582678       2.55342471       0.00000000
Si      -2.12231009      -0.29729250      -3.03643756       0.00000000
Si      -2.07673067       1.99635581      -2.36683767       0.00000000
Si       2.01921068       0.35132643      -3.12798932       0.00000000
