10
Lattice="16.290000149 0.0 0.0 0.0 16.290000149 0.0 0.0 0.0 29.1751946751" Properties=species:S:1:pos:R:3:initial_magmoms:R:1 pbc="T T T"
Si      -1.23593860       1.83721880       0.69291087       0.00000000
Si      -1.53808552      -0.72783721      -1.59573727       0.00000000
Si       1.62496009       0.65673136      -1.56203992       0.00000000
Si       0.09703953      -1.43852104       1.94738589       0.00000000
H        0.35626230      -2.56623214      -0.87309688       0.00000000
H        0.06937911       2.37071630       1.61939836       0.00000000
H        1.54230463      -0.41269086      -2.62979370       0.00000000
Si      -2.73303848      -2.05048748      -0.08630023       0.00000000
H        0.22144626      -3.37302535       1.37972413       0.00000000
H       -0.26770986       3.07687152      -1.99158631       0.00000000
