10
Lattice="16.290000149 0.0 0.0 0.0 16.290000149 0.0 0.0 0.0 29.1751946751" Properties=species:S:1:pos:R:3:initial_magmoms:R:1 pbc="T T T"
Si       0.46486773      -0.42376806       2.21182986       0.00000000
Si       1.82912267       1.29596725      -0.63441461       0.00000000
Si      -1.65227843       1.65392372      -0.09435258       0.00000000
Si      -0.66539764      -1.87748768      -1.29529112       0.00000000
H        1.82288360       0.14773401       2.48724370       0.00000000
Si       0.79623892       2.12131640      -2.58786894       0.00000000
Si      -2.08385592      -0.65388061      -2.67052227       0.00000000
Si      -3.42441867       0.64822798      -1.24630597       0.00000000
Si      -0.73155133       3.38506203      -1.37391827       0.00000000
Si       3.65176191      -0.16048908      -0.79881683       0.00000000
