10
Lattice="16.290000149 0.0 0.0 0.0 16.290000149 0.0 0.0 0.0 29.1751946751" Properties=species:S:1:pos:R:3:initial_magmoms:R:1 pbc="T T T"
Si      -1.37411038      -1.35570268       1.33470681       0.00000000
Si      -1.38166894       1.35756952      -1.32586672       0.00000000
Si       1.35084826       1.36861577       1.35250367       0.00000000
Si       1.35099487      -1.37779192      -1.34678534       0.00000000
Si      -0.00410508      -2.69734709       2.68788151       0.00000000
Si      -0.02979441       2.73017144      -2.66098198       0.00000000
Si      -2.73965223      -0.01317861      -2.66384115       0.00000000
Si      -2.69420312       0.01317861       2.71804866       0.00000000
Si       2.73230544      -0.03503979      -2.68111287       0.00000000
Si       2.72684828       0.02326212       2.68931109       0.00000000
