10
Lattice="16.290000149 0.0 0.0 0.0 16.290000149 0.0 0.0 0.0 29.1751946751" Properties=species:S:1:pos:R:3:initial_magmoms:R:1 pbc="T T T"
Si      -1.39992417       1.16628256      -1.46506158       0.00000000
Si      -1.46428596      -1.17442756       1.41526535       0.00000000
Si       1.46030501      -1.27298206      -1.34944028       0.00000000
Si       1.21556405       1.49200111       1.39953409       0.00000000
H       -2.29691674       1.89322382      -0.47605165       0.00000000
Si       2.64757072       0.42134085      -2.54180131       0.00000000
Si      -0.07579151      -2.53232939       2.77335316       0.00000000
Si      -2.85849820      -2.49479723       0.04828495       0.00000000
Si       2.60360401       0.15270246       2.76992508       0.00000000
Si      -0.25076240       2.80963407      -2.64429377       0.00000000
