10
Lattice="16.290000149 0.0 0.0 0.0 16.290000149 0.0 0.0 0.0 29.1751946751" Properties=species:S:1:pos:R:3:initial_magmoms:R:1 pbc="T T T"
Si       1.35332434       1.39290945      -1.30993123       0.00000000
Si      -1.32727663       1.35117406       1.38214567       0.00000000
Si      -1.34249149      -1.32201496      -1.40222112       0.00000000
Si       1.38186442      -1.35689185       1.34281751       0.00000000
Si       2.67366143      -0.09329283      -2.52071056       0.00000000
Si      -0.03645702       2.71469757      -2.66902850       0.00000000
Si       2.71453304       2.67619453       0.09925401       0.00000000
Si       0.02078604      -2.72026712       2.67268123       0.00000000
Si      -2.70925508      -0.00856854       2.69182016       0.00000000
Si       0.03960099      -2.67835295      -2.72523743       0.00000000
