10
Lattice="16.290000149 0.0 0.0 0.0 16.290000149 0.0 0.0 0.0 29.1751946751" Properties=species:S:1:pos:R:3:initial_magmoms:R:1 pbc="T T T"
Si      -1.23144256       1.20458279       1.59552138       0.00000000
Si      -1.94453732      -0.85875994      -1.05347631       0.00000000
Si       1.46197685       1.31547306      -1.38479770       0.00000000
Si       1.30085425      -1.53148807       1.32619932       0.00000000
H       -0.84999592      -2.58657509      -1.83826775       0.00000000
Si      -2.64829790       2.54141433       0.33509170       0.00000000
Si       2.64501710      -0.27766305      -2.65634021       0.00000000
Si       2.81387109       2.52772421       0.09964204       0.00000000
Si      -3.68344596       0.69120100      -0.61774682       0.00000000
Si       2.69249105      -0.23988654       2.75539583       0.00000000
