10
Lattice="16.290000149 0.0 0.0 0.0 16.290000149 0.0 0.0 0.0 29.1751946751" Properties=species:S:1:pos:R:3:initial_magmoms:R:1 pbc="T T T"
Si       1.33969124      -1.35886294       1.36236489       0.00000000
Si      -1.35133533      -1.35588187      -1.35938902       0.00000000
Si       1.35910892       1.35220033      -1.36207314       0.00000000
Si      -1.32768225       1.35008263       1.39480771       0.00000000
Si       2.69063724       0.02811654       2.68493482       0.00000000
Si      -2.67128147       2.70716996       0.02546994       0.00000000
Si       0.03557410      -2.71575479      -2.68578090       0.00000000
Si      -2.69079689      -2.71179632       0.02086026       0.00000000
Si      -2.69845319       0.02319696      -2.71343898       0.00000000
Si       2.69917320       2.71544528       0.00282999       0.00000000
