10
Lattice="16.290000149 0.0 0.0 0.0 16.290000149 0.0 0.0 0.0 29.1751946751" Properties=species:S:1:pos:R:3:initial_magmoms:R:1 pbc="T T T"
Si       1.30435660      -1.37990962       1.37493940       0.00000000
Si      -1.37321443      -1.38359116      -1.31017047       0.00000000
Si      -1.32304123       1.37184607       1.37342229       0.00000000
Si       1.35459496       1.34675947      -1.37388909       0.00000000
Si      -2.68319108       2.69661404      -0.01826367       0.00000000
Si       2.68366349      -0.01729998       2.70774982       0.00000000
Si      -0.00289962      -2.72373201      -2.67606556       0.00000000
Si      -2.69754257      -0.02008557      -2.70316931       0.00000000
Si       2.69642671       2.70935282      -0.02071439       0.00000000
Si      -2.66320325       0.02355534       2.74626107       0.00000000
