10
Lattice="16.290000149 0.0 0.0 0.0 16.290000149 0.0 0.0 0.0 29.1751946751" Properties=species:S:1:pos:R:3:initial_magmoms:R:1 pbc="T T T"
H        1.35801586       0.57150208       0.27541384       0.00000000
Si      -0.46486773       0.42376806      -2.21182986       0.00000000
Si      -1.35604477       1.35298225       1.32767558       0.00000000
Si      -0.45269910      -2.20736018       0.61145373       0.00000000
H        2.28390689      -1.18947952      -0.16577346       0.00000000
H        2.95714002      -0.26642295       1.44954037       0.00000000
Si       0.61888969      -2.11928015       2.71338063       0.00000000
Si       1.36425493       1.71973532      -2.84624447       0.00000000
Si      -2.76208844      -2.02877291       1.20729873       0.00000000
Si      -2.53688896      -0.17606232       2.64222233       0.00000000
