10
Lattice="16.290000149 0.0 0.0 0.0 16.290000149 0.0 0.0 0.0 29.1751946751" Properties=species:S:1:pos:R:3:initial_magmoms:R:1 pbc="T T T"
H        0.65168146      -0.42152004       0.04563000       0.00000000
H       -1.15118173      -1.62479719       1.13123900       0.00000000
Si      -1.86725756      -1.70634494      -0.19524040       0.00000000
Si       0.85009366       1.74557126       1.75363343       0.00000000
Si      -0.08373060       0.82846054      -2.57021795       0.00000000
Si      -2.20864709       0.24265584      -1.56877939       0.00000000
Si       2.63422334       0.20610108       1.12566654       0.00000000
Si       1.40343238      -0.97130755      -2.45337130       0.00000000
Si      -0.25831053      -2.49411305      -1.72043205       0.00000000
Si      -0.37203102       3.07431399       0.24483823       0.00000000
