10
Lattice="16.290000149 0.0 0.0 0.0 16.290000149 0.0 0.0 0.0 29.1751946751" Properties=species:S:1:pos:R:3:initial_magmoms:R:1 pbc="T T T"
Si      -1.45613053      -1.29863881       1.30313925       0.00000000
Si       1.36933741      -1.38790801      -1.31078315       0.00000000
Si      -1.36366849       1.32519151      -1.38103702       0.00000000
Si       1.38269521       1.35092971       1.34054184       0.00000000
Si      -0.05520681       2.72256401       2.57258114       0.00000000
Si      -0.21419721      -2.68680746       2.67641566       0.00000000
Si       2.72414414       2.68335398      -0.03223859       0.00000000
Si       2.72298755      -0.04062726      -2.68510987       0.00000000
Si       0.00832419      -2.73352718      -2.67848710       0.00000000
Si      -0.00985545       2.67656105      -2.74267253       0.00000000
