10
Lattice="16.290000149 0.0 0.0 0.0 16.290000149 0.0 0.0 0.0 29.1751946751" Properties=species:S:1:pos:R:3:initial_magmoms:R:1 pbc="T T T"
H        1.98928595      -0.09332541      -1.06466120       0.00000000
Si       1.02105721      -1.33297813       1.61983598       0.00000000
Si       0.76540195       1.86720869      -1.28268743       0.00000000
Si      -0.77770090      -2.03739032      -1.00969514       0.00000000
Si      -1.07025301       1.10511361       1.86867122       0.00000000
H       -1.21713994       1.23958756      -2.36272397       0.00000000
H       -3.02000313       0.03631041      -1.27711497       0.00000000
H       -1.86882140       1.66110761      -2.40835397       0.00000000
H        2.32637492      -0.79948063       2.54632347       0.00000000
Si      -1.01872774       3.40667886      -0.65472054       0.00000000
