10
Lattice="16.290000149 0.0 0.0 0.0 16.290000149 0.0 0.0 0.0 29.1751946751" Properties=species:S:1:pos:R:3:initial_magmoms:R:1 pbc="T T T"
Si       1.36363591       1.34972425      -1.35008213       0.00000000
Si       1.37433844      -1.35179308       1.34491812       0.00000000
Si      -1.35123922       1.36155079       1.36119788       0.00000000
Si      -1.36945144      -1.36182772      -1.35250367       0.00000000
Si      -0.00263898      -2.67199985       2.70763312       0.00000000
Si      -0.02583594       2.69747741      -2.68449719       0.00000000
Si       2.66473451      -2.72028341      -0.06716130       0.00000000
Si       2.68372865      -0.01915704      -2.73342399       0.00000000
Si       2.72564282       2.69220597       0.02789149       0.00000000
Si      -2.68902779       0.01194057       2.73123585       0.00000000
