10
Lattice="16.290000149 0.0 0.0 0.0 16.290000149 0.0 0.0 0.0 29.1751946751" Properties=species:S:1:pos:R:3:initial_magmoms:R:1 pbc="T T T"
Si      -1.22212468       1.32874273      -1.50879519       0.00000000
Si       1.33511212       1.45199287       1.29100236       0.00000000
Si      -1.61896537      -1.02620485       1.39445760       0.00000000
Si       1.78412969      -1.53947017      -0.62796689       0.00000000
H       -0.85009366      -1.74557126      -1.75363343       0.00000000
H       -0.19841220      -2.16709130      -1.70800342       0.00000000
H        1.34933329       0.61711408      -2.83886314       0.00000000
Si      -0.05152527      -2.30156525       2.52339176       0.00000000
Si       0.03811860       1.07904961      -3.44535709       0.00000000
Si       1.01872774      -3.40667886       0.65472054       0.00000000
