10
Lattice="16.290000149 0.0 0.0 0.0 16.290000149 0.0 0.0 0.0 29.1751946751" Properties=species:S:1:pos:R:3:initial_magmoms:R:1 pbc="T T T"
Si       1.31435866       1.35824392      -1.38389618       0.00000000
Si      -1.38618127       1.47927862       1.21187924       0.00000000
Si       1.59891238      -1.30015378       1.21351305       0.00000000
Si      -1.50237784      -1.34079733      -1.30354770       0.00000000
Si      -1.69212377      -2.38454651       2.10469854       0.00000000
Si      -2.23663331      -0.00702099       2.84239334       0.00000000
Si       2.37164483      -0.10766061      -2.86255340       0.00000000
Si       3.46996551       0.16426836       1.37423919       0.00000000
Si       3.12857598       2.11326914       0.00070020       0.00000000
H        2.07073595       0.99939151       2.99830558       0.00000000
