10
Lattice="16.290000149 0.0 0.0 0.0 16.290000149 0.0 0.0 0.0 29.1751946751" Properties=species:S:1:pos:R:3:initial_magmoms:R:1 pbc="T T T"
Si      -1.41522634      -1.32559876       1.23904134       0.00000000
Si       1.36115983      -1.37083609      -1.26235232       0.00000000
Si       1.22939002       1.13801941       1.62607948       0.00000000
Si      -1.39549915       1.44984259      -1.19387814       0.00000000
Si      -0.36939204       1.06474699       3.41985797       0.00000000
Si       2.69873174       0.07653042      -2.51866538       0.00000000
Si      -2.49675203       0.09506844       2.73774192       0.00000000
Si      -0.05857884      -2.68121999      -2.57657814       0.00000000
Si       2.52696998       2.72753246       0.34960636       0.00000000
Si      -0.11966634      -2.61943202       2.66494981       0.00000000
