10
Lattice="16.290000149 0.0 0.0 0.0 16.290000149 0.0 0.0 0.0 29.1751946751" Properties=species:S:1:pos:R:3:initial_magmoms:R:1 pbc="T T T"
Si      -1.25426485       1.34328319       1.48458532       0.00000000
Si       1.35361756      -1.39059668       1.39568296       0.00000000
Si      -1.44203968      -1.45074506      -1.27157168       0.00000000
Si       1.52202358       1.37239342      -1.28318341       0.00000000
H       -0.65130679       1.16614572      -2.73920068       0.00000000
Si      -0.03635928      -2.62642695      -2.75025808       0.00000000
Si      -2.60467165      -0.06408649       2.82547756       0.00000000
Si      -2.87017096       2.54551778       0.26887859       0.00000000
Si       0.13354542       2.61313757       2.86426307       0.00000000
Si       3.72641898       0.98576655      -0.47748124       0.00000000
