10
Lattice="10.86 0.0 0.0 0.0 10.86 0.0 0.0 0.0 10.86" Properties=species:S:1:pos:R:3:initial_magmoms:R:1 pbc="T T T"
Si      -1.50248100       1.30682724       1.12424892       0.00000000
Si       1.29424050       1.20677406      -1.61829204       0.00000000
Si      -1.38675684      -1.27972068      -1.50143844       0.00000000
Si       2.05995738       0.07064430       1.73496102       0.00000000
Si      -0.10654746       2.62217958       2.50325172       0.00000000
Si       2.60845254       2.62217958      -0.21174828       0.00000000
Si      -2.82154746      -0.09282042       2.50325172       0.00000000
Si      -2.82154746       2.62217958      -0.21174828       0.00000000
Si       2.60845254      -0.09282042      -2.92674828       0.00000000
Si      -0.10654746       2.62217958      -2.92674828       0.00000000
