10
Lattice="10.86 0.0 0.0 0.0 10.86 0.0 0.0 0.0 10.86" Properties=species:S:1:pos:R:3:initial_magmoms:R:1 pbc="T T T"
Si       1.88870604       1.20693696      -0.73517856       0.00000000
Si      -0.71142774       1.10095422       2.09811942       0.00000000
Si      -2.05995738      -0.07064430      -1.73496102       0.00000000
Si       1.79320320      -1.39524936       2.09646870       0.00000000
Si       0.54849516       2.55153528      -1.94670930       0.00000000
Si      -2.16650484       2.55153528       0.76829070       0.00000000
Si      -0.76571688       1.13612976      -3.35325306       0.00000000
Si       3.26349516      -0.16346472      -1.94670930       0.00000000
Si      -3.56243838       1.23618294      -0.61071210       0.00000000
Si      -0.80900484       3.90903528      -0.58920930       0.00000000
