10
Lattice="16.28999089631971 0.0 0.0 0.0 16.28999089631971 0.0 0.0 0.0 34.279985188174585" Properties=species:S:1:pos:R:3:initial_magmoms:R:1 pbc="T T T"
Si       0.19789092       2.07477585       1.01266561       0.00000000
Si      -0.88397685       0.47359917      -2.11007139       0.00000000
Si       2.10248514      -0.96723504      -0.36336805       0.00000000
Si      -1.17342897      -1.39862682       1.50269827       0.00000000
Si       2.27950857      -2.22265647       1.66532261       0.00000000
Si      -0.09677889      -1.30655574      -3.39354903       0.00000000
Si      -1.88655467       3.05414272       0.66684892       0.00000000
Si       0.61380720       1.63983285       3.27415178       0.00000000
Si       1.96828812      -1.95450678      -2.46939439       0.00000000
Si      -0.18977850       2.61175519      -2.79933943       0.00000000
