10
Lattice="16.28999089631971 0.0 0.0 0.0 16.28999089631971 0.0 0.0 0.0 34.279985188174585" Properties=species:S:1:pos:R:3:initial_magmoms:R:1 pbc="T T T"
Si      -1.96467174      -1.19957931      -0.42202113       0.00000000
Si       1.75464477      -1.50032529      -0.43826986       0.00000000
Si      -0.10407681       0.66499038       2.25229913       0.00000000
Si      -0.01580130       1.78658946      -1.54520548       0.00000000
Si      -3.34598229       0.76462002      -0.33848076       0.00000000
Si      -1.31157306      -2.09878731      -2.59681317       0.00000000
Si       1.10947932      -2.43724464      -2.53771444       0.00000000
Si       1.66009761       3.22931331      -0.69451289       0.00000000
Si       3.69191673      -0.25739829       0.15888782       0.00000000
Si       1.53741762      -3.15732128       1.21892839       0.00000000
