10
Lattice="16.28999089631971 0.0 0.0 0.0 16.28999089631971 0.0 0.0 0.0 34.279985188174585" Properties=species:S:1:pos:R:3:initial_magmoms:R:1 pbc="T T T"
Si       1.90689111       0.16798248      -1.41099926       0.00000000
Si      -1.11112461       2.28822372      -0.10212013       0.00000000
Si       1.20752883       0.40542552       2.35866998       0.00000000
Si      -1.23383718      -1.08190035      -2.27752921       0.00000000
Si       0.82231920       2.34300699      -1.56508788       0.00000000
Si      -1.36985868      -2.41655634       2.35582474       0.00000000
Si      -0.60704685      -0.43815213       3.65735564       0.00000000
Si      -2.47161654      -2.98854711       0.24794727       0.00000000
Si      -2.83617045       2.16803610      -1.74564066       0.00000000
Si       1.77787431      -1.06681581      -3.40355879       0.00000000
