10
Lattice="16.28999089631971 0.0 0.0 0.0 16.28999089631971 0.0 0.0 0.0 34.279985188174585" Properties=species:S:1:pos:R:3:initial_magmoms:R:1 pbc="T T T"
Si       1.24199847      -1.27896048       1.56164617       0.00000000
Si       1.56405177       1.25550288      -1.27616713       0.00000000
Si      -1.35218403      -1.26864891      -1.63346761       0.00000000
Si      -1.46370537       1.43752734       1.56108397       0.00000000
Si      -0.28540080       2.30887944      -2.33936146       0.00000000
Si      -2.07897867       0.80518212      -2.79209748       0.00000000
Si       2.58012423      -2.73575889       0.06048707       0.00000000
Si      -2.79448271      -2.58611895      -0.06552280       0.00000000
Si       2.64898206       2.83625190       0.15625512       0.00000000
Si       2.59397073       0.09598068       2.94543053       0.00000000
