10
Lattice="16.28999089631971 0.0 0.0 0.0 16.28999089631971 0.0 0.0 0.0 34.279985188174585" Properties=species:S:1:pos:R:3:initial_magmoms:R:1 pbc="T T T"
Si      -1.35811359      -1.34566803       1.36067621       0.00000000
Si      -1.35469269       1.35573525      -1.35940785       0.00000000
Si       1.36023129      -1.35951453      -1.35796809       0.00000000
Si       1.35793440       1.36081773       1.37198861       0.00000000
Si       0.06563241      -2.62664847       2.71689602       0.00000000
Si      -2.71021617       2.71643895      -0.00071988       0.00000000
Si      -2.71155195      -0.00153126      -2.71638182       0.00000000
Si      -2.71257822      -2.71663443       0.00089128       0.00000000
Si       0.00340461       2.71360449      -2.71669034       0.00000000
Si       2.71955034       2.71283886       0.00123408       0.00000000
