10
Lattice="16.28999089631971 0.0 0.0 0.0 16.28999089631971 0.0 0.0 0.0 34.279985188174585" Properties=species:S:1:pos:R:3:initial_magmoms:R:1 pbc="T T T"
Si       1.35469269      -1.35573525       1.35940785       0.00000000
Si      -1.35685926      -1.35726651      -1.35697397       0.00000000
Si       1.35809730       1.35786924      -1.35728249       0.00000000
Si      -1.35552348       1.36070370       1.35868797       0.00000000
Si      -0.00342090      -2.70140328       2.72008406       0.00000000
Si       0.00058644      -2.71446786      -2.71439358       0.00000000
Si      -2.71448415       2.71453302      -0.00023996       0.00000000
Si      -2.71451673       0.00039096      -2.71463354       0.00000000
Si       2.71469592       2.71463076       0.00061704       0.00000000
Si       0.00102627       2.71510317      -2.71435930       0.00000000
