10
Lattice="16.28999089631971 0.0 0.0 0.0 16.28999089631971 0.0 0.0 0.0 34.279985188174585" Properties=species:S:1:pos:R:3:initial_magmoms:R:1 pbc="T T T"
Si       1.36870209       1.24009254      -1.45357502       0.00000000
Si       1.54351008      -1.30784265       1.38864870       0.00000000
Si      -0.77776605       1.02358215       2.10921439       0.00000000
Si      -1.35845568      -1.53686376      -1.42841350       0.00000000
Si      -0.32653305      -2.02487958       2.75426123       0.00000000
Si      -2.26742139      -0.65748069       2.84866836       0.00000000
Si       2.34043317       3.00102525      -0.13451474       0.00000000
Si      -0.01194057       2.53097730      -2.84894260       0.00000000
Si       2.71308321      -0.17980902      -2.84236084       0.00000000
Si      -2.71262709      -0.19025091      -2.85062232       0.00000000
