10
Lattice="16.28999089631971 0.0 0.0 0.0 16.28999089631971 0.0 0.0 0.0 34.279985188174585" Properties=species:S:1:pos:R:3:initial_magmoms:R:1 pbc="T T T"
Si       1.34848620       1.35739683       1.37091565       0.00000000
Si      -1.36809936      -1.35624024       1.37070997       0.00000000
Si      -1.33555194       1.39766571      -1.38418887       0.00000000
Si       1.40194998      -1.32958980      -1.41877396       0.00000000
Si       2.69588097      -2.70044217       0.01745881       0.00000000
Si      -2.71945260       2.70224451       0.03163702       0.00000000
Si       2.72189610       2.70697805      -0.01418164       0.00000000
Si       2.70459612       0.00143352       2.73155758       0.00000000
Si      -2.71073745      -2.72831436      -0.01394511       0.00000000
Si      -0.01031157      -2.71282257       2.73073486       0.00000000
