10
Lattice="16.28999089631971 0.0 0.0 0.0 16.28999089631971 0.0 0.0 0.0 34.279985188174585" Properties=species:S:1:pos:R:3:initial_magmoms:R:1 pbc="T T T"
Si       1.31758407       1.22106582      -1.48339661       0.00000000
Si       1.29393099      -1.37085237       1.43623277       0.00000000
Si      -1.08493029      -1.58074902      -1.43242224       0.00000000
Si      -1.40194998       1.32958980       1.41877396       0.00000000
Si       2.26546659      -0.73658493      -2.60634099       0.00000000
Si       2.73189816       2.64647340      -0.14231687       0.00000000
Si       2.61726543      -2.81103498       0.15531584       0.00000000
Si       2.66336613      -0.02410920       2.79301477       0.00000000
Si      -2.73750192       2.72725551       0.03458510       0.00000000
Si      -0.05346378       2.68698663       2.78968961       0.00000000
