10
Lattice="16.28999089631971 0.0 0.0 0.0 16.28999089631971 0.0 0.0 0.0 34.279985188174585" Properties=species:S:1:pos:R:3:initial_magmoms:R:1 pbc="T T T"
Si      -1.92704184      -0.81052524       1.15427631       0.00000000
Si      -0.17980902       2.06197258      -1.24755220       0.00000000
Si      -0.12180033      -0.78607395      -2.30203941       0.00000000
Si       1.75244562       0.40379652       1.67368693       0.00000000
Si       0.31977270       3.47946974       0.61752000       0.00000000
Si      -0.93138075      -1.83236436       2.96484330       0.00000000
Si      -2.50307253       1.21399598       2.30279357       0.00000000
Si       3.57720255      -0.57844161       0.70873909       0.00000000
Si       0.90544707      -0.51523641       3.62082546       0.00000000
Si       2.04809283       2.26826588      -2.21174588       0.00000000
