10
Lattice="16.28999089631971 0.0 0.0 0.0 16.28999089631971 0.0 0.0 0.0 34.279985188174585" Properties=species:S:1:pos:R:3:initial_magmoms:R:1 pbc="T T T"
Si      -0.99566109       1.02183912      -1.81056699       0.00000000
Si      -1.39997889      -0.67048011       1.76374050       0.00000000
Si       1.83682782       1.31712795       0.65598216       0.00000000
Si       0.71811207      -2.03144445      -0.96138272       0.00000000
Si      -1.57169178       3.04636034      -0.66204972       0.00000000
Si       0.93138075       1.83236436      -2.96484330       0.00000000
Si       3.20451993      -0.23245830       1.73809906       0.00000000
Si      -1.45569069      -3.02576976       1.58524452       0.00000000
Si       2.68382637       2.23616088      -1.29115636       0.00000000
Si       0.66707550      -3.59898228       0.81946350       0.00000000
