10
Lattice="16.28999089631971 0.0 0.0 0.0 16.28999089631971 0.0 0.0 0.0 34.279985188174585" Properties=species:S:1:pos:R:3:initial_magmoms:R:1 pbc="T T T"
Si      -1.89589536      -0.79891047       1.05167625       0.00000000
Si       2.09354193       0.02205666       1.02874293       0.00000000
Si       0.24203682      -1.51589853      -1.76127234       0.00000000
Si      -0.38582865       2.28863816      -0.32113508       0.00000000
Si      -3.28241871       0.32961090      -0.63280888       0.00000000
Si       1.56362823       2.62781225      -1.60653240       0.00000000
Si       1.60972893      -3.06548478      -0.67915545       0.00000000
Si       1.58952933      -0.14126688       3.31539062       0.00000000
Si      -1.95826977       0.34452114       3.10583695       0.00000000
Si       0.25933680       3.22555751       1.77830951       0.00000000
