10
Lattice="16.28999089631971 0.0 0.0 0.0 16.28999089631971 0.0 0.0 0.0 34.279985188174585" Properties=species:S:1:pos:R:3:initial_magmoms:R:1 pbc="T T T"
Si       1.88999838       0.72418077       1.21022127       0.00000000
Si       0.33508530      -1.15437456      -2.04953290       0.00000000
Si      -0.80700660      -1.93404654       1.43259566       0.00000000
Si      -1.48908519       1.87885669      -1.00454125       0.00000000
Si      -3.19142277       0.18907803      -0.44817678       0.00000000
Si       1.06067448      -1.17131616       2.86244892       0.00000000
Si      -2.77550649      -0.24586497       1.81330939       0.00000000
Si       2.95249734      -1.34552142       1.35395733       0.00000000
Si      -1.28682855      -2.85293286      -1.82421043       0.00000000
Si       0.09453087       0.53394126      -3.67869011       0.00000000
