10
Lattice="16.28999089631971 0.0 0.0 0.0 16.28999089631971 0.0 0.0 0.0 34.279985188174585" Properties=species:S:1:pos:R:3:initial_magmoms:R:1 pbc="T T T"
Si       1.89182286      -0.17420526      -1.50849159       0.00000000
Si       1.08380628      -1.31010696       1.74687474       0.00000000
Si      -1.86768108      -0.76273038      -1.42985326       0.00000000
Si       0.82932390       1.89549693      -1.65222765       0.00000000
Si      -1.98330750       1.82542549       1.83103215       0.00000000
Si      -1.06067448       1.17131616      -2.86244892       0.00000000
Si       2.03168880      -3.26775771       0.62393036       0.00000000
Si       2.49812037       0.11530062       3.08795449       0.00000000
Si      -3.83618097       0.92545119      -1.04913953       0.00000000
Si      -0.23377779      -2.53117278       3.23027135       0.00000000
