10
Lattice="16.28999089631971 0.0 0.0 0.0 16.28999089631971 0.0 0.0 0.0 34.279985188174585" Properties=species:S:1:pos:R:3:initial_magmoms:R:1 pbc="T T T"
Si       1.49118660       1.26351756       1.23202336       0.00000000
Si       0.45113526      -2.23360335       0.43871550       0.00000000
Si      -2.07572067       1.03265568       0.50559578       0.00000000
Si       0.48847194       0.65808342      -2.25606993       0.00000000
Si      -1.49832162      -2.57277744       1.72411282       0.00000000
Si       0.37507725       2.97527076      -1.71046938       0.00000000
Si      -1.73394018       3.02334255      -0.70328857       0.00000000
Si       0.49682871      -3.11788645      -1.69518049       0.00000000
Si       1.81136655       3.27212343       0.10846193       0.00000000
Si      -1.26811134      -0.26572248      -3.59055622       0.00000000
