10
Lattice="16.28999089631971 0.0 0.0 0.0 16.28999089631971 0.0 0.0 0.0 34.279985188174585" Properties=species:S:1:pos:R:3:initial_magmoms:R:1 pbc="T T T"
Si       0.46499805      -0.48195594      -2.22107004       0.00000000
Si       0.05792724      -2.13840459       0.96762168       0.00000000
Si       1.78434144       1.25644770       0.93176480       0.00000000
Si      -1.97389188       1.34830701       0.11422097       0.00000000
Si      -2.08591821       1.91357001       2.38564834       0.00000000
Si      -3.64979079      -0.09441684      -0.73647161       0.00000000
Si       0.78517800       1.52664993      -3.34463146       0.00000000
Si      -0.23200218      -1.86818607       3.29053762       0.00000000
Si       0.59220666       3.30680484      -1.90384288       0.00000000
Si      -1.61593542       3.31240860      -1.15760147       0.00000000
