10
Lattice="16.28999089631971 0.0 0.0 0.0 16.28999089631971 0.0 0.0 0.0 34.279985188174585" Properties=species:S:1:pos:R:3:initial_magmoms:R:1 pbc="T T T"
Si       1.36161594       1.35202113      -1.37075453       0.00000000
Si      -1.35793440      -1.36081773      -1.37198861       0.00000000
Si       1.33861446      -1.31642748       1.46046531       0.00000000
Si      -1.34438112       1.41990156       1.38878582       0.00000000
Si      -2.71604799      -2.70648576      -0.01131240       0.00000000
Si       2.72942208       2.69377956       0.01059252       0.00000000
Si       2.71272483      -2.72077209       0.02108220       0.00000000
Si      -2.72502378       2.71078632      -0.00658176       0.00000000
Si       0.00206883       2.70954828      -2.73077943       0.00000000
Si      -2.71262709      -0.00508248      -2.73139647       0.00000000
