10
Lattice="16.28999089631971 0.0 0.0 0.0 16.28999089631971 0.0 0.0 0.0 34.279985188174585" Properties=species:S:1:pos:R:3:initial_magmoms:R:1 pbc="T T T"
Si      -1.38064266       1.29088476      -1.39536758       0.00000000
Si      -1.36870209      -1.24009254       1.45357502       0.00000000
Si       1.34438112      -1.41990156      -1.38878582       0.00000000
Si       0.97173108       1.76093271       1.31906029       0.00000000
Si      -0.87273675       3.42076968       1.37685637       0.00000000
Si      -2.76477138       2.61811251       0.05697337       0.00000000
Si       0.17480799      -2.54793519       2.84222372       0.00000000
Si      -0.00980658       2.64857481      -2.75981459       0.00000000
Si       2.72950353       2.68455942      -0.02759540       0.00000000
Si       2.68299558      -2.73632904       0.07167949       0.00000000
