10
Lattice="16.28999089631971 0.0 0.0 0.0 16.28999089631971 0.0 0.0 0.0 34.279985188174585" Properties=species:S:1:pos:R:3:initial_magmoms:R:1 pbc="T T T"
Si       0.11689704      -2.00073780      -1.20631335       0.00000000
Si       1.47654189       1.41367878      -1.14032434       0.00000000
Si       1.10605842      -0.36383715       2.21417976       0.00000000
Si      -1.92451689       1.03558788      -1.23654832       0.00000000
Si      -1.76389749       1.62701262       2.50041780       0.00000000
Si      -2.01689748      -2.86415667      -0.49349494       0.00000000
Si       0.51730524      -1.12275567      -3.40534135       0.00000000
Si      -1.34617302       0.30147903      -3.44136964       0.00000000
Si       3.46916727       1.46596968       0.03044064       0.00000000
Si       0.69258564       3.57444954      -1.32053433       0.00000000
