10
Lattice="16.28999089631971 0.0 0.0 0.0 16.28999089631971 0.0 0.0 0.0 34.279985188174585" Properties=species:S:1:pos:R:3:initial_magmoms:R:1 pbc="T T T"
Si      -1.34164440      -1.35736425       1.37370947       0.00000000
Si       1.33825608      -1.40440977      -1.34815373       0.00000000
Si       1.36907676       1.35741312       1.37281819       0.00000000
Si      -1.27311237       1.31321835      -1.56162217       0.00000000
Si       0.63123750       2.06275383      -3.00063989       0.00000000
Si       2.44825668       0.19932444      -2.80630654       0.00000000
Si      -2.68506441       2.70331280      -0.01471298       0.00000000
Si      -2.71107954      -2.70410742       0.01692747       0.00000000
Si      -2.70236439      -0.00223173       2.73102624       0.00000000
Si       0.01303200       2.71380906       2.72965504       0.00000000
