10
Lattice="16.28999089631971 0.0 0.0 0.0 16.28999089631971 0.0 0.0 0.0 34.279985188174585" Properties=species:S:1:pos:R:3:initial_magmoms:R:1 pbc="T T T"
Si       1.35775747      -1.35563094      -1.35800237       0.00000000
Si      -1.35788557      -1.35693414       1.35669973       0.00000000
Si       1.35690713       1.35841079       1.35680257       0.00000000
Si      -1.35764122       1.35705709      -1.36084761       0.00000000
Si       2.71998103      -0.01469286      -2.70002341       0.00000000
Si       2.71349761      -2.71353276       0.00003428       0.00000000
Si       2.71452388       0.00062463       2.71353658       0.00000000
Si      -0.00011005      -2.71436355       2.71405078       0.00000000
Si      -2.71450048      -2.71426581      -0.00092556       0.00000000
Si      -2.71521724       0.00064189       2.71415362       0.00000000
