10
Lattice="16.28999089631971 0.0 0.0 0.0 16.28999089631971 0.0 0.0 0.0 34.279985188174585" Properties=species:S:1:pos:R:3:initial_magmoms:R:1 pbc="T T T"
Si       1.35704334       1.35708732      -1.35697397       0.00000000
Si      -1.35695930      -1.35798327      -1.35680257       0.00000000
Si      -1.35736091       1.35738054       1.35820805       0.00000000
Si       1.35774381      -1.35754344       1.35813949       0.00000000
Si      -2.71530095       0.00014661       2.71401650       0.00000000
Si      -2.71464935       2.71469592      -0.00013712       0.00000000
Si       2.71494516       2.71495656       0.00013712       0.00000000
Si      -2.71490999      -2.71507059       0.00010284       0.00000000
Si       2.71470081      -0.00019548       2.71552482       0.00000000
Si       2.71502661      -2.71541268       0.00034280       0.00000000
