10
Lattice="16.28999089631971 0.0 0.0 0.0 16.28999089631971 0.0 0.0 0.0 34.279985188174585" Properties=species:S:1:pos:R:3:initial_magmoms:R:1 pbc="T T T"
Si       1.36365219       1.36151820       1.34716989       0.00000000
Si      -1.35728280       1.35681039      -1.35999061       0.00000000
Si       1.35625653      -1.35892809      -1.35975065       0.00000000
Si      -1.37083608      -1.35769005       1.36444701       0.00000000
Si      -0.11572416       2.57841378       2.70489802       0.00000000
Si       0.00980658      -2.64857481       2.75981459       0.00000000
Si       2.71352304       2.71232988      -0.00109696       0.00000000
Si      -2.71396287      -2.71285515      -0.00167972       0.00000000
Si      -0.00035838       2.71414888      -2.71720454       0.00000000
Si       2.71461447      -0.00087966      -2.71737594       0.00000000
