10
Lattice="16.28999089631971 0.0 0.0 0.0 16.28999089631971 0.0 0.0 0.0 34.279985188174585" Properties=species:S:1:pos:R:3:initial_magmoms:R:1 pbc="T T T"
Si      -1.35656604      -1.35553977      -1.37761053       0.00000000
Si       1.35786924       1.35899325      -1.37719917       0.00000000
Si       1.38986280      -1.30956939       1.44455938       0.00000000
Si      -1.41289686       1.28590002       1.44617054       0.00000000
Si       2.70510111      -2.70408461      -0.01395196       0.00000000
Si      -2.70649391      -2.71270202       0.00630752       0.00000000
Si      -2.71053708       2.70904329       0.00613612       0.00000000
Si       2.71233387       2.72995965      -0.01741424       0.00000000
Si      -2.71265478       0.00140094      -2.73708695       0.00000000
Si       0.00052128      -2.71431148      -2.73708695       0.00000000
