10
Lattice="16.28999089631971 0.0 0.0 0.0 16.28999089631971 0.0 0.0 0.0 34.279985188174585" Properties=species:S:1:pos:R:3:initial_magmoms:R:1 pbc="T T T"
Si      -1.82475693       0.98223813       0.96494784       0.00000000
Si       0.03852585       1.51164684      -1.80175703       0.00000000
Si      -0.78459156      -2.06860194      -0.93090780       0.00000000
Si       1.86702948      -0.50645610       1.47088643       0.00000000
Si       0.68015637       2.91717966      -0.12021998       0.00000000
Si       2.77215075      -1.05199191      -1.46711563       0.00000000
Si       1.52223534       0.29206341      -3.07059711       0.00000000
Si       1.44257724      -3.02262579      -0.94060904       0.00000000
Si       1.69976376      -2.85597909       1.42656238       0.00000000
Si      -1.30447062       3.32263287       0.93293032       0.00000000
