10
Lattice="16.28999089631971 0.0 0.0 0.0 16.28999089631971 0.0 0.0 0.0 34.279985188174585" Properties=species:S:1:pos:R:3:initial_magmoms:R:1 pbc="T T T"
Si       1.56893877      -1.67672970      -0.17712478       0.00000000
Si      -0.30716424       1.16475129      -2.03263286       0.00000000
Si      -2.15720325      -0.85903686       0.47618354       0.00000000
Si       0.87571782       1.14940611       1.88995948       0.00000000
Si      -3.07406961       1.00286127       1.62384381       0.00000000
Si      -1.96380837       2.94568812       0.75662826       0.00000000
Si       1.44260982      -2.67983532       1.97610513       0.00000000
Si       3.51829791      -0.42411015      -0.86159363       0.00000000
Si      -1.45979577       3.10901166      -1.53001943       0.00000000
Si      -3.25625697      -1.06782579      -1.55782052       0.00000000
