10
Lattice="16.28999089631971 0.0 0.0 0.0 16.28999089631971 0.0 0.0 0.0 34.279985188174585" Properties=species:S:1:pos:R:3:initial_magmoms:R:1 pbc="T T T"
Si       0.78395625      -2.16077076       0.18020998       0.00000000
Si       0.93300975       0.74350818      -2.00123237       0.00000000
Si      -2.31946794      -0.20945682      -0.18487206       0.00000000
Si      -0.29983374       1.56962295       1.76384334       0.00000000
Si      -2.59634907       1.14611553       1.68853017       0.00000000
Si      -0.14833674       3.33944741       0.24369655       0.00000000
Si       3.19160196       0.70086096      -1.39704730       0.00000000
Si       0.10632483       2.91059101      -2.06334774       0.00000000
Si      -2.61710253      -2.53886166       0.08398601       0.00000000
Si       2.77658163      -2.10847986       1.35097497       0.00000000
