10
Lattice="16.28999089631971 0.0 0.0 0.0 16.28999089631971 0.0 0.0 0.0 34.279985188174585" Properties=species:S:1:pos:R:3:initial_magmoms:R:1 pbc="T T T"
Si      -2.29651533      -0.42350742      -0.07531317       0.00000000
Si       0.15149700       1.76982446      -1.52014679       0.00000000
Si       0.29983374      -1.56962295      -1.76384334       0.00000000
Si       0.21413205       0.61553394       3.08211519       0.00000000
Si      -2.01963420      -1.77907977      -1.94871541       0.00000000
Si      -1.70136018       3.07713932      -1.06665662       0.00000000
Si       2.27941083       2.62650090      -1.20038291       0.00000000
Si      -3.35901429       1.64619477      -0.21904923       0.00000000
Si       1.23284349      -0.82611477      -3.76507572       0.00000000
Si       2.03115123      -1.24789545       3.27644854       0.00000000
