10
Lattice="16.28999089631971 0.0 0.0 0.0 16.28999089631971 0.0 0.0 0.0 34.279985188174585" Properties=species:S:1:pos:R:3:initial_magmoms:R:1 pbc="T T T"
Si       1.35664749       1.35722644       1.35717965       0.00000000
Si      -1.35861858      -1.35777151       1.35543137       0.00000000
Si       1.35733167      -1.35757603      -1.35745389       0.00000000
Si      -1.35752715       1.35741215      -1.35776241       0.00000000
Si       0.00043983       2.71455648      -2.71411934       0.00000000
Si       2.71521724      -0.00064189      -2.71415362       0.00000000
Si       2.71455074       2.71494744       0.00065132       0.00000000
Si       0.00071676      -2.71490770      -2.71507918       0.00000000
Si       2.71510719      -2.71500544      -0.00010284       0.00000000
Si      -2.71515204      -2.71507060      -0.00003428       0.00000000
