10
Lattice="16.28999089631971 0.0 0.0 0.0 16.28999089631971 0.0 0.0 0.0 34.279985188174585" Properties=species:S:1:pos:R:3:initial_magmoms:R:1 pbc="T T T"
Si      -1.35451350       1.35681039      -1.36269873       0.00000000
Si       1.35826020      -1.35936629      -1.36053909       0.00000000
Si       1.35580041       1.33491663       1.40637146       0.00000000
Si      -1.35293337      -1.34990506       1.40133230       0.00000000
Si      -2.70932022       2.71251306      -0.00137120       0.00000000
Si       0.00091224       2.71329498      -2.71720454       0.00000000
Si      -2.71329498      -0.00102627      -2.71734166       0.00000000
Si      -2.71463076      -2.71845379      -0.00147404       0.00000000
Si       2.71616345      -0.00164529      -2.71706742       0.00000000
Si       2.71509676       2.71899648       0.00263956       0.00000000
