10
Lattice="16.28999089631971 0.0 0.0 0.0 16.28999089631971 0.0 0.0 0.0 34.279985188174585" Properties=species:S:1:pos:R:3:initial_magmoms:R:1 pbc="T T T"
Si       1.35850455       1.35213516       1.36252733       0.00000000
Si       1.35682668      -1.35726651      -1.35985349       0.00000000
Si      -1.35819667       1.35821133      -1.35981921       0.00000000
Si      -1.35470409      -1.36482507       1.38302678       0.00000000
Si      -0.07789878       2.60405424       2.76913875       0.00000000
Si      -2.71671319      -2.70915732       0.00277668       0.00000000
Si       2.71370223      -2.71487511      -0.00030852       0.00000000
Si      -0.00013032      -2.71461447      -2.71723882       0.00000000
Si       2.71472850       0.00022806      -2.71758162       0.00000000
Si      -2.71523504       0.00030951      -2.71717026       0.00000000
