10
Lattice="16.28999089631971 0.0 0.0 0.0 16.28999089631971 0.0 0.0 0.0 34.279985188174585" Properties=species:S:1:pos:R:3:initial_magmoms:R:1 pbc="T T T"
Si       1.35399941      -1.35508365      -1.36112185       0.00000000
Si       1.35695930       1.35798327       1.35680257       0.00000000
Si      -1.35795069      -1.35708732       1.35690541       0.00000000
Si      -1.35715248       1.35801585      -1.36324721       0.00000000
Si       2.71400264       2.71507059      -0.00017140       0.00000000
Si       2.71470311       0.00043983       2.71494206       0.00000000
Si      -0.00081307      -2.71474479       2.71525058       0.00000000
Si      -2.71492398      -2.71513575       0.00047992       0.00000000
Si      -0.00040161       2.71536381       2.71501062       0.00000000
Si      -2.71606428       0.00019548       2.71511346       0.00000000
