10
Lattice="16.28999089631971 0.0 0.0 0.0 16.28999089631971 0.0 0.0 0.0 34.279985188174585" Properties=species:S:1:pos:R:3:initial_magmoms:R:1 pbc="T T T"
Si       0.61760277       0.09309735      -2.22888588       0.00000000
Si      -0.87369786       0.58912785       2.11565903       0.00000000
Si       0.14281443       2.38011561       0.50185926       0.00000000
Si       2.04827202       1.54697985      -0.88027623       0.00000000
Si       3.43469763       0.35468217       0.79999246       0.00000000
Si      -3.17860254       1.49343462      -0.80006102       0.00000000
Si       1.36677987       2.17430775       2.55255768       0.00000000
Si       0.34044471      -1.06756515       3.45765264       0.00000000
Si       2.33973270      -0.01935252       2.88747333       0.00000000
Si      -3.15180549       0.16330725       2.39860618       0.00000000
