10
Lattice="16.28999089631971 0.0 0.0 0.0 16.28999089631971 0.0 0.0 0.0 34.279985188174585" Properties=species:S:1:pos:R:3:initial_magmoms:R:1 pbc="T T T"
Si       0.92494620      -0.16368192      -2.09886183       0.00000000
Si      -2.27074455       0.43935759       0.11171853       0.00000000
Si       1.06797240       1.52819748       1.39783574       0.00000000
Si      -0.35938998      -2.19639699       0.88970323       0.00000000
Si      -2.59092450      -1.56924828       1.23527996       0.00000000
Si      -1.31553153      -1.74886182      -2.53576048       0.00000000
Si       2.95798707       0.89158428      -1.62888297       0.00000000
Si       1.89789903      -2.35734219      -1.76394618       0.00000000
Si      -0.10138896      -3.40555482      -1.19376687       0.00000000
Si      -2.46371589       2.21951250       1.55250712       0.00000000
