10
Lattice="16.28999089631971 0.0 0.0 0.0 16.28999089631971 0.0 0.0 0.0 34.279985188174585" Properties=species:S:1:pos:R:3:initial_magmoms:R:1 pbc="T T T"
Si       0.37492479       0.85323762      -2.18113384       0.00000000
Si      -2.10784455      -0.74860695       0.79550178       0.00000000
Si       0.62053564       2.03177025       1.21070119       0.00000000
Si       1.04955234      -2.20924980       0.14051374       0.00000000
Si      -1.79149275       1.80866241      -2.46888019       0.00000000
Si      -2.29392522      -2.57803911      -0.86481595       0.00000000
Si       1.83921335       2.62177776      -1.74217838       0.00000000
Si      -1.57555251      -0.66538134       3.23990605       0.00000000
Si       2.63657627       1.44559089       2.28256837       0.00000000
Si      -0.18293670      -3.42182853      -1.59724252       0.00000000
