10
Lattice="16.28999089631971 0.0 0.0 0.0 16.28999089631971 0.0 0.0 0.0 34.279985188174585" Properties=species:S:1:pos:R:3:initial_magmoms:R:1 pbc="T T T"
Si      -2.02320171       1.19822724      -0.27410291       0.00000000
Si       2.10784455       0.74860695      -0.79550178       0.00000000
Si      -0.18608067      -1.82943216      -1.66031773       0.00000000
Si       0.53229204       0.08322561       2.44440427       0.00000000
Si       3.15739689      -1.46064285      -0.65498804       0.00000000
Si      -1.36068741       3.01977504      -1.63954405       0.00000000
Si       1.20371697      -2.12020866       2.83488780       0.00000000
Si      -2.62545930       2.24661906       1.75143398       0.00000000
Si       2.72838019       2.78037720       0.41519941       0.00000000
Si      -1.85086980      -3.39933204      -0.97307220       0.00000000
