10
Lattice="16.28999089631971 0.0 0.0 0.0 16.28999089631971 0.0 0.0 0.0 34.279985188174585" Properties=species:S:1:pos:R:3:initial_magmoms:R:1 pbc="T T T"
Si      -1.51708870      -1.35936792       1.28872248       0.00000000
Si       1.26484813      -1.32735807      -1.56861872       0.00000000
Si       1.27221935       1.46494341       1.45299226       0.00000000
Si      -1.43052364       1.37578824      -1.57002420       0.00000000
Si       2.54165344       2.64152124      -0.18250674       0.00000000
Si       2.56248835      -2.75050134      -0.12858430       0.00000000
Si      -2.66082589       2.70479160      -0.05327113       0.00000000
Si       2.74933465       0.09528021       2.70637206       0.00000000
Si      -0.13066309      -2.55166560       2.96899118       0.00000000
Si       2.61955222       0.03746700      -2.95164549       0.00000000
