10
Lattice="16.28999089631971 0.0 0.0 0.0 16.28999089631971 0.0 0.0 0.0 34.279985188174585" Properties=species:S:1:pos:R:3:initial_magmoms:R:1 pbc="T T T"
Si      -1.50522858       1.42938234      -1.22033387       0.00000000
Si      -1.26340353      -1.23250140       1.68340672       0.00000000
Si       0.46550304      -1.04651847      -2.24633440       0.00000000
Si       1.48395384       1.50166107       1.39795713       0.00000000
Si       1.36625859       0.95348628      -3.09431887       0.00000000
Si      -3.05191521      -2.06008227       0.33957772       0.00000000
Si      -2.62264113       2.64070674       0.43251154       0.00000000
Si       2.58900228      -2.13812766      -2.20471848       0.00000000
Si      -2.61057024       0.06314004       3.11982803       0.00000000
Si       0.09001854      -2.65168620       3.08611708       0.00000000
