10
Lattice="16.28999089631971 0.0 0.0 0.0 16.28999089631971 0.0 0.0 0.0 34.279985188174585" Properties=species:S:1:pos:R:3:initial_magmoms:R:1 pbc="T T T"
Si       1.49174046       1.17662670      -1.51617031       0.00000000
Si       0.73002006      -2.05439706       1.20795879       0.00000000
Si      -1.39504302      -1.44454833      -1.58329056       0.00000000
Si       0.19080477       1.89755694       1.79205579       0.00000000
Si       2.91913542       2.55389733      -0.06454925       0.00000000
Si       2.63547765      -2.88753282      -0.17417670       0.00000000
Si      -2.59139691      -2.94107805      -0.09396149       0.00000000
Si      -2.03636403       2.85158079       1.80175703       0.00000000
Si      -0.00423540       2.56565871      -3.03316334       0.00000000
Si       2.72204271      -0.15237666      -3.03292338       0.00000000
