10
Lattice="16.28999089631971 0.0 0.0 0.0 16.28999089631971 0.0 0.0 0.0 34.279985188174585" Properties=species:S:1:pos:R:3:initial_magmoms:R:1 pbc="T T T"
Si      -1.72432908       0.58192767      -1.44976994       0.00000000
Si      -0.07530867      -2.05060149       1.14635763       0.00000000
Si       1.77111396      -0.38962422      -1.51411351       0.00000000
Si       0.37515870       2.01329739       1.21827707       0.00000000
Si      -1.55706336       2.93145066      -1.40544590       0.00000000
Si      -1.75234788      -1.58809581       2.77119555       0.00000000
Si       1.92544642       3.11919291      -0.16211014       0.00000000
Si      -3.71420145       0.33598125      -0.26776111       0.00000000
Si       1.81470600      -2.68721469      -1.88036108       0.00000000
Si      -1.14328107      -3.57879897      -0.25147811       0.00000000
