10
Lattice="16.28999089631971 0.0 0.0 0.0 16.28999089631971 0.0 0.0 0.0 34.279985188174585" Properties=species:S:1:pos:R:3:initial_magmoms:R:1 pbc="T T T"
Si       0.54881010      -1.71955611       1.40242926       0.00000000
Si      -2.28266883       0.28183329      -0.20160071       0.00000000
Si       1.39598851      -0.79588053      -1.70755558       0.00000000
Si       0.29054844       2.02450491       1.20422227       0.00000000
Si      -2.15633988       1.28493891      -2.35483062       0.00000000
Si      -1.00598895       1.25908668       3.06446099       0.00000000
Si      -0.49761063      -1.04661621       3.37421511       0.00000000
Si      -0.80009964      -3.49303212       0.32164928       0.00000000
Si       2.90738123      -1.38046347       1.66052341       0.00000000
Si       1.70753476       1.13735151      -3.00882454       0.00000000
