10
Lattice="16.28999089631971 0.0 0.0 0.0 16.28999089631971 0.0 0.0 0.0 34.279985188174585" Properties=species:S:1:pos:R:3:initial_magmoms:R:1 pbc="T T T"
Si       1.35150692       1.35977517      -1.36760077       0.00000000
Si      -1.11685869       1.46522411       1.47033795       0.00000000
Si      -1.36813194      -1.34990343      -1.36561253       0.00000000
Si       1.36072649      -1.30548060       1.45971115       0.00000000
Si      -2.43659304      -0.07851780       2.71134266       0.00000000
Si       2.43046867       0.38169099       2.84208660       0.00000000
Si       2.70439154      -2.70953199       0.01120956       0.00000000
Si       2.70691974       0.00706986      -2.72608307       0.00000000
Si      -0.00749340      -2.70852201      -2.72618591       0.00000000
Si       2.71440174       2.72195867       0.01792844       0.00000000
