10
Lattice="16.28999089631971 0.0 0.0 0.0 16.28999089631971 0.0 0.0 0.0 34.279985188174585" Properties=species:S:1:pos:R:3:initial_magmoms:R:1 pbc="T T T"
Si       1.91021168       1.23212251      -0.67044832       0.00000000
Si      -0.36346248      -1.72709838      -1.60807500       0.00000000
Si      -1.57548735       1.76816451       0.35243272       0.00000000
Si       0.60194808      -1.05650424       2.13979215       0.00000000
Si       0.97689501       1.09145999       3.10398583       0.00000000
Si      -0.74663586       2.72258747       2.43254339       0.00000000
Si      -3.70340118       0.91148807       0.03266884       0.00000000
Si      -2.62205469      -1.68445116      -2.21226008       0.00000000
Si       0.51805458      -3.77102097      -0.72029145       0.00000000
Si       2.39847674       2.96020970       0.90612335       0.00000000
