10
Lattice="16.28999089631971 0.0 0.0 0.0 16.28999089631971 0.0 0.0 0.0 34.279985188174585" Properties=species:S:1:pos:R:3:initial_magmoms:R:1 pbc="T T T"
Si       0.37494693       2.14796423       0.96419368       0.00000000
Si       2.21999210      -0.85344939       0.31839268       0.00000000
Si      -0.96943419      -2.03460471       0.96631904       0.00000000
Si      -0.60194808       1.05650424      -2.13979215       0.00000000
Si       0.77207337       1.25832105       3.06118866       0.00000000
Si       2.02138930      -2.16414279      -1.97439113       0.00000000
Si      -2.42569503      -1.04972760       2.68947202       0.00000000
Si       1.30826360       2.28862675      -2.81024048       0.00000000
Si      -1.38043089      -3.47993496      -0.99984489       0.00000000
Si       3.80862548       0.87431688      -0.20293763       0.00000000
