10
Lattice="16.28999089631971 0.0 0.0 0.0 16.28999089631971 0.0 0.0 0.0 34.279985188174585" Properties=species:S:1:pos:R:3:initial_magmoms:R:1 pbc="T T T"
Si      -2.34507908      -0.28603611       0.08062657       0.00000000
Si       1.03187376       1.60078572      -1.42443702       0.00000000
Si       1.38131055      -1.96419933      -0.08354037       0.00000000
Si      -0.01842399       1.11593016       2.13848951       0.00000000
Si       3.34598229      -0.76462002       0.33848076       0.00000000
Si      -2.47422294      -1.42806285       2.19446876       0.00000000
Si       3.33018099       1.02196944      -1.20672471       0.00000000
Si      -0.92756889      -0.34197597       3.73364095       0.00000000
Si      -3.39463142       1.92321369      -0.05988717       0.00000000
Si       0.62939673       3.86512830      -0.96247968       0.00000000
