10
Lattice="16.28999089631971 0.0 0.0 0.0 16.28999089631971 0.0 0.0 0.0 34.279985188174585" Properties=species:S:1:pos:R:3:initial_magmoms:R:1 pbc="T T T"
Si       0.90914490       1.45790613      -1.59515144       0.00000000
Si       1.05818211      -1.69271019       1.31295845       0.00000000
Si      -1.54665405      -1.08608688      -1.53917220       0.00000000
Si      -0.54415116       1.55722626       1.84484699       0.00000000
Si      -1.07154480      -2.44141488       1.95536573       0.00000000
Si      -3.37119011      -0.60362595      -0.16313854       0.00000000
Si       2.80500768       1.95408324      -0.34317712       0.00000000
Si      -2.93078996      -1.00312191       2.17129548       0.00000000
Si      -0.33513417       3.71237697       0.78525206       0.00000000
Si       0.92756889       0.34197597      -3.73364095       0.00000000
