10
Lattice="16.28999089631971 0.0 0.0 0.0 16.28999089631971 0.0 0.0 0.0 34.279985188174585" Properties=species:S:1:pos:R:3:initial_magmoms:R:1 pbc="T T T"
Si       1.36133037       1.34801379       1.40730387       0.00000000
Si      -1.35534219      -1.36414089       1.40678967       0.00000000
Si       1.39958255      -1.33139799      -1.60172978       0.00000000
Si      -1.32233865       1.43581689      -1.65423989       0.00000000
Si      -2.69736126       2.69348634       0.02625848       0.00000000
Si       2.70579457      -2.71637379       0.01318752       0.00000000
Si       2.73035989       2.69224830       0.02487700       0.00000000
Si      -2.71627395      -2.71753038       0.03392006       0.00000000
Si       0.00032215       2.70834282       2.76952269       0.00000000
Si      -2.71472640      -0.00599472       2.76996833       0.00000000
