10
Lattice="16.28999089631971 0.0 0.0 0.0 16.28999089631971 0.0 0.0 0.0 34.279985188174585" Properties=species:S:1:pos:R:3:initial_magmoms:R:1 pbc="T T T"
Si      -1.36902952      -1.34423451       1.38242688       0.00000000
Si       1.34263809       1.37207412       1.38465508       0.00000000
Si      -1.38770600       1.36998900      -1.36449158       0.00000000
Si       1.46370537      -1.43752734      -1.56108397       0.00000000
Si       0.00392589       2.59988400      -2.78853922       0.00000000
Si       2.70570384      -2.71648782       0.00056219       0.00000000
Si      -2.73035989      -2.69224830      -0.02487700       0.00000000
Si       2.71073745       2.72831436       0.01394511       0.00000000
Si      -0.01454697      -2.69933445       2.74498849       0.00000000
Si       2.70042588       0.01549179       2.74467997       0.00000000
