10
Lattice="16.28999089631971 0.0 0.0 0.0 16.28999089631971 0.0 0.0 0.0 34.279985188174585" Properties=species:S:1:pos:R:3:initial_magmoms:R:1 pbc="T T T"
Si      -1.35703837      -1.35790182      -1.35735105       0.00000000
Si       1.35795232       1.35694071      -1.35755673       0.00000000
Si       1.35819667      -1.35821133       1.35981921       0.00000000
Si      -1.36000380       1.35997065       1.35933929       0.00000000
Si      -2.71435939       2.71472850      -0.00109696       0.00000000
Si       2.71530028       2.71381626      -0.00102840       0.00000000
Si       0.00038282       2.71446786      -2.71511346       0.00000000
Si      -2.71432681      -0.00058644      -2.71569622       0.00000000
Si      -2.71497841      -2.71513575      -0.00154260       0.00000000
Si       2.71502335      -2.71547784      -0.00003428       0.00000000
