10
Lattice="16.28999089631971 0.0 0.0 0.0 16.28999089631971 0.0 0.0 0.0 34.279985188174585" Properties=species:S:1:pos:R:3:initial_magmoms:R:1 pbc="T T T"
Si       1.43640333      -1.25191908      -1.40661142       0.00000000
Si      -1.26943409      -1.17657783       1.63549901       0.00000000
Si       1.02341925       1.69740171       1.33184673       0.00000000
Si      -1.28277234       1.46787561      -1.39265946       0.00000000
Si      -2.54165344      -2.64152124       0.18250674       0.00000000
Si       0.07789878      -2.60405424      -2.76913875       0.00000000
Si       2.79057474      -2.59853193       0.01559740       0.00000000
Si      -2.64030169       0.11412774      -2.76961867       0.00000000
Si      -2.12895639       0.65453220       3.14258512       0.00000000
Si       0.20768121      -2.54624103       2.88887881       0.00000000
