10
Lattice="16.28999089631971 0.0 0.0 0.0 16.28999089631971 0.0 0.0 0.0 34.279985188174585" Properties=species:S:1:pos:R:3:initial_magmoms:R:1 pbc="T T T"
Si      -1.98139247       0.00928530      -1.20977563       0.00000000
Si       0.21160710       2.32523460      -0.06900565       0.00000000
Si      -0.19710900      -0.83857662       2.17739732       0.00000000
Si       1.86245199      -1.35817875      -0.46339710       0.00000000
Si      -1.93780043      -2.28830517      -1.57602320       0.00000000
Si       3.14911764      -0.44287623       1.26935428       0.00000000
Si      -1.66139755      -2.60711676       1.73844186       0.00000000
Si       1.16497935       2.99628486       1.94830405       0.00000000
Si      -3.75250643       0.39890952       0.30433788       0.00000000
Si       1.16753688       3.03319800      -2.10612919       0.00000000
