10
Lattice="16.28999089631971 0.0 0.0 0.0 16.28999089631971 0.0 0.0 0.0 34.279985188174585" Properties=species:S:1:pos:R:3:initial_magmoms:R:1 pbc="T T T"
Si       1.28666565       0.91530252       1.73275138       0.00000000
Si      -1.86245199       1.35817875       0.46339710       0.00000000
Si       0.78855003      -0.33098022      -2.19398884       0.00000000
Si      -0.07993503      -2.28462363       0.74175073       0.00000000
Si      -2.05956099       0.51960213       2.64079441       0.00000000
Si       0.12525381      -0.16026102       3.48038028       0.00000000
Si      -2.40859542      -2.54495412       0.45698674       0.00000000
Si       3.40943184       0.34209000       0.96697036       0.00000000
Si      -0.88537779      -1.15807239      -3.59778930       0.00000000
Si      -2.26756800      -2.36841939      -2.10095291       0.00000000
