10
Lattice="16.28999089631971 0.0 0.0 0.0 16.28999089631971 0.0 0.0 0.0 34.279985188174585" Properties=species:S:1:pos:R:3:initial_magmoms:R:1 pbc="T T T"
Si       0.90713146      -1.34322453      -1.65161061       0.00000000
Si       1.76494657       1.52959842       0.20249199       0.00000000
Si      -0.31154625      -1.93323204       1.30126896       0.00000000
Si      -1.91451550       1.40020695      -0.03047492       0.00000000
Si      -1.70753476      -1.13735151       3.00882454       0.00000000
Si       0.97774861       3.30975333       1.48596963       0.00000000
Si      -2.27310727       1.90755900      -2.30639297       0.00000000
Si       3.09194626      -2.02308768      -0.81202474       0.00000000
Si      -0.55715710      -3.11176467      -2.09056607       0.00000000
Si       1.70449438      -2.51941140       2.37313614       0.00000000
