10
Lattice="16.28999089631971 0.0 0.0 0.0 16.28999089631971 0.0 0.0 0.0 34.279985188174585" Properties=species:S:1:pos:R:3:initial_magmoms:R:1 pbc="T T T"
Si      -1.39598851       0.79588053       1.70755558       0.00000000
Si       0.31154625       1.93323204      -1.30126896       0.00000000
Si       2.01604063      -0.58617936       1.07186718       0.00000000
Si      -0.62053564      -2.03177025      -1.21070119       0.00000000
Si       1.21867771       0.59000751      -2.95287957       0.00000000
Si      -0.84717841      -0.92367558       3.10998483       0.00000000
Si      -0.24561085      -1.17853263      -3.39183503       0.00000000
Si       1.51139272      -0.58458294       3.36807899       0.00000000
Si      -2.72838019      -2.78037720      -0.41519941       0.00000000
Si      -1.60296925       3.33343899      -1.33174389       0.00000000
