10
Lattice="16.28999089631971 0.0 0.0 0.0 16.28999089631971 0.0 0.0 0.0 34.279985188174585" Properties=species:S:1:pos:R:3:initial_magmoms:R:1 pbc="T T T"
Si       0.50464791      -0.00159642      -2.29621181       0.00000000
Si      -2.35857113      -0.33909264      -0.25809415       0.00000000
Si      -0.20901699      -2.15515071       1.05959493       0.00000000
Si       0.73331064       2.05004763       1.07971730       0.00000000
Si       1.24427907      -2.25447084      -2.38040350       0.00000000
Si      -2.90738123       1.38046347      -1.66052341       0.00000000
Si       1.51602885      -2.03496309       2.70311546       0.00000000
Si      -1.51139272       0.58458294      -3.36807899       0.00000000
Si       3.14014185      -1.75829373      -1.12842918       0.00000000
Si       0.33513417      -3.71237697      -0.78525206       0.00000000
