10
Lattice="16.28999089631971 0.0 0.0 0.0 16.28999089631971 0.0 0.0 0.0 34.279985188174585" Properties=species:S:1:pos:R:3:initial_magmoms:R:1 pbc="T T T"
Si      -1.35752935      -1.35374787      -1.37695921       0.00000000
Si       1.36317978       1.35542574      -1.37599937       0.00000000
Si       1.28277234      -1.46787561       1.39265946       0.00000000
Si      -1.34366504       1.40405139       1.44850158       0.00000000
Si       2.30619159       0.22952610       2.72450619       0.00000000
Si      -2.70439154       2.70953199      -0.01120956       0.00000000
Si      -2.68940474      -2.73360861       0.00514200       0.00000000
Si       2.71917567      -2.71979469      -0.01395196       0.00000000
Si       2.73557970       2.70334179      -0.01854548       0.00000000
Si      -2.71188494       0.00100998      -2.73739547       0.00000000
