10
Lattice="16.290000149 0.0 0.0 0.0 16.290000149 0.0 0.0 0.0 29.1751946751" Properties=species:S:1:pos:R:3:initial_magmoms:R:1 pbc="T T T"
Si      -1.36241416       1.37007046       1.26153542       0.00000000
Si      -1.41996673      -1.30978117      -1.31416747       0.00000000
Si       1.33692031       1.44536284      -1.25917223       0.00000000
Si       1.29689578      -1.30399822       1.46048107       0.00000000
Si      -2.77737987       0.04359204       2.49993491       0.00000000
Si      -0.04126257      -2.65611710      -2.63662069       0.00000000
Si       2.68216481       0.08198757      -2.60954611       0.00000000
Si       2.67965615      -2.64477926       0.12145634       0.00000000
Si      -0.04994514       2.78919012      -2.60505313       0.00000000
Si      -2.78212026       0.08439849      -2.61899888       0.00000000
