10
Lattice="16.290000149 0.0 0.0 0.0 16.290000149 0.0 0.0 0.0 29.1751946751" Properties=species:S:1:pos:R:3:initial_magmoms:R:1 pbc="T T T"
Si      -2.31534659      -0.04468347       0.35109429       0.00000000
H       -0.87087970       1.55644435      -1.53729936       0.00000000
Si       0.96855454      -0.40451003      -2.15467565       0.00000000
Si       1.04014909       2.14342193       0.37586403       0.00000000
Si       0.05180220      -2.06146694       1.28983536       0.00000000
H       -2.93283534       1.27922113      -0.05887554       0.00000000
Si       2.84996811       1.26306145       1.54021688       0.00000000
Si       2.88683238      -1.46442703      -1.37642733       0.00000000
Si       3.52756695      -0.78822912       0.76978751       0.00000000
Si      -3.16487010      -1.72739162      -1.02927169       0.00000000
