10
Lattice="16.290000149 0.0 0.0 0.0 16.290000149 0.0 0.0 0.0 29.1751946751" Properties=species:S:1:pos:R:3:initial_magmoms:R:1 pbc="T T T"
Si      -1.25820703      -1.36588393       1.42877639       0.00000000
Si      -1.45038016       1.42472341      -1.21117903       0.00000000
Si       0.96029551      -1.27071775      -1.75249559       0.00000000
Si       1.38838042       1.37961640       1.34029386       0.00000000
Si       2.35287875       0.16431723      -2.92851852       0.00000000
Si      -2.68656311       0.00913869       2.71951909       0.00000000
Si      -2.07037757      -3.22853142       0.25806335       0.00000000
Si       2.73663858       0.01764207       2.71726385       0.00000000
Si       0.02472822       2.72727182       2.73062901       0.00000000
Si      -0.18684630       2.90163999      -2.54722790       0.00000000
