10
Lattice="16.290000149 0.0 0.0 0.0 16.290000149 0.0 0.0 0.0 29.1751946751" Properties=species:S:1:pos:R:3:initial_magmoms:R:1 pbc="T T T"
Si       1.67195675      -1.69196087      -0.25332822       0.00000000
Si      -1.86214250      -0.82797184      -1.26136037       0.00000000
Si      -0.64107667       0.33306534       2.32934754       0.00000000
Si       0.68810590       1.86496067      -1.41843961       0.00000000
H        2.20688777       0.79229674       1.12388685       0.00000000
H       -1.07108380       2.50320287       0.10996131       0.00000000
H       -2.62045829      -0.27471456       1.24306752       0.00000000
H        0.59302117      -1.61266114       2.55390902       0.00000000
H       -0.49865319       2.37350189      -2.21842345       0.00000000
H       -3.27717336       0.13854645       1.19699989       0.00000000
