10
Lattice="16.290000149 0.0 0.0 0.0 16.290000149 0.0 0.0 0.0 29.1751946751" Properties=species:S:1:pos:R:3:initial_magmoms:R:1 pbc="T T T"
Si       1.39453804       1.37668420       1.30366440       0.00000000
Si      -1.40294368      -1.28345164       1.39247369       0.00000000
Si       1.33270120      -1.39305565      -1.35717171       0.00000000
Si      -1.34392501       1.33789771      -1.40099285       0.00000000
Si      -2.63254547      -2.71660187      -0.03282209       0.00000000
Si       0.01764207       2.72821665       2.63332390       0.00000000
Si       2.59331915      -2.78875029       0.06975789       0.00000000
Si       2.70135443      -0.03306870      -2.73144008       0.00000000
Si      -2.71000442       2.72261288      -0.08265333       0.00000000
Si       2.72909630       0.05043384       2.71492692       0.00000000
