10
Lattice="16.290000149 0.0 0.0 0.0 16.290000149 0.0 0.0 0.0 29.1751946751" Properties=species:S:1:pos:R:3:initial_magmoms:R:1 pbc="T T T"
Si       1.35488818      -1.36609570       1.33785773       0.00000000
Si      -1.35654976      -1.36787131      -1.33660319       0.00000000
Si       1.37398006       1.33744159      -1.36119788       0.00000000
Si      -1.37748241       1.34684092       1.35585882       0.00000000
Si       2.64197738       0.07148052       2.65637230       0.00000000
Si       0.02741607      -2.72269759      -2.67087237       0.00000000
Si      -2.68482660      -0.00671148      -2.71060899       0.00000000
Si      -2.70794537       2.70594821      -0.00808153       0.00000000
Si       0.03065778       2.72056034      -2.70413209       0.00000000
Si      -2.70339720      -2.72329869       0.03839456       0.00000000
