10
Lattice="16.290000149 0.0 0.0 0.0 16.290000149 0.0 0.0 0.0 29.1751946751" Properties=species:S:1:pos:R:3:initial_magmoms:R:1 pbc="T T T"
Si       1.74542465       0.32222435      -1.49315729       0.00000000
Si      -1.91827784       1.05991700      -0.77824832       0.00000000
Si       0.64073458       0.67619791       2.14621485       0.00000000
Si      -0.04311963      -2.14507862       0.98016984       0.00000000
Si       1.86396698      -1.98263474      -1.72793008       0.00000000
Si      -0.60390289      -1.10932783       2.98972807       0.00000000
H        1.33191928       2.99040908       0.00373442       0.00000000
Si      -0.75712663       2.50004750      -2.28398012       0.00000000
Si      -2.88683238       1.46442703       1.37642733       0.00000000
Si       2.15120855      -2.86892478       0.51339590       0.00000000
