10
Lattice="16.290000149 0.0 0.0 0.0 16.290000149 0.0 0.0 0.0 29.1751946751" Properties=species:S:1:pos:R:3:initial_magmoms:R:1 pbc="T T T"
Si      -1.43294986       1.31949001      -1.28295001       0.00000000
Si      -1.38018655      -1.31722570       1.36385283       0.00000000
Si       1.33534018       1.40431204       1.33800360       0.00000000
Si       1.34661286      -1.27886275      -1.46039354       0.00000000
Si      -0.07703541       2.65974977      -2.59816779       0.00000000
Si       2.68579748      -2.61566903      -0.03897806       0.00000000
Si      -0.02430468      -2.68773599       2.70214818       0.00000000
Si      -2.75364534      -2.64370412       0.00055433       0.00000000
Si       2.69812901       0.06447582       2.70162303       0.00000000
Si      -2.74960542       0.06120153       2.68665615       0.00000000
