10
Lattice="16.290000149 0.0 0.0 0.0 16.290000149 0.0 0.0 0.0 29.1751946751" Properties=species:S:1:pos:R:3:initial_magmoms:R:1 pbc="T T T"
Si       1.36278883      -1.33983622       1.36361942       0.00000000
Si       1.35550720       1.37073835      -1.34599761       0.00000000
Si      -1.35570268       1.35226549       1.36569086       0.00000000
Si      -1.33534018      -1.40431204      -1.33800360       0.00000000
Si       2.70694190      -2.67051746      -0.02284418       0.00000000
Si      -2.76829005      -0.08482203      -2.62095361       0.00000000
Si       0.01050705      -2.73018773       2.69126583       0.00000000
Si      -2.72432333       2.70068654       0.02433211       0.00000000
Si       0.00985545       2.71552673      -2.71177599       0.00000000
Si       2.71301807       2.71891505       0.02126872       0.00000000
