10
Lattice="16.290000149 0.0 0.0 0.0 16.290000149 0.0 0.0 0.0 29.1751946751" Properties=species:S:1:pos:R:3:initial_magmoms:R:1 pbc="T T T"
Si      -0.93630034       1.04282065      -1.83103522       0.00000000
Si       1.06678324       1.76290382       1.06095595       0.00000000
Si       1.33602436      -1.54238608      -1.15787595       0.00000000
Si      -1.93412801      -1.02785014       0.91111215       0.00000000
H        0.50588595      -1.28308186       2.39379555       0.00000000
Si       0.68473387      -2.67049140       1.78321707       0.00000000
Si      -1.67558942      -1.01501362      -2.71361403       0.00000000
Si      -0.46250568      -2.87993030      -1.76200671       0.00000000
Si      -2.23630751       2.53961102      -0.50201757       0.00000000
Si      -1.21368646      -3.21766436       0.49521975       0.00000000
