10
Lattice="16.290000149 0.0 0.0 0.0 16.290000149 0.0 0.0 0.0 29.1751946751" Properties=species:S:1:pos:R:3:initial_magmoms:R:1 pbc="T T T"
Si       1.38295748      -1.41222410       1.20592750       0.00000000
Si      -1.23156444      -1.36079168      -1.42865093       0.00000000
Si       1.41967514       1.30980235      -1.35810531       0.00000000
Si      -1.28957994       1.29260011       1.52064032       0.00000000
H        1.61499224       1.59438865       2.17632365       0.00000000
Si       2.23248099       0.27048405       2.58629348       0.00000000
Si      -2.54825938       2.66470682       0.06535244       0.00000000
Si      -2.53646542      -2.68255089      -0.04157465       0.00000000
Si       0.07325450       2.64729281      -2.73354069       0.00000000
Si      -2.69587937      -0.05496246      -2.69211191       0.00000000
