10
Lattice="16.290000149 0.0 0.0 0.0 16.290000149 0.0 0.0 0.0 29.1751946751" Properties=species:S:1:pos:R:3:initial_magmoms:R:1 pbc="T T T"
Si       1.40429412      -1.23101902       1.40980376       0.00000000
Si      -1.43741495       1.25061589       1.36076025       0.00000000
Si      -1.36356407      -1.38375406      -1.34173803       0.00000000
Si       1.35377883       1.44016633      -1.30614429       0.00000000
H       -1.27426669      -1.42045543       3.05627669       0.00000000
Si      -0.23011091      -2.43814061       2.66573754       0.00000000
Si       2.56081897      -2.63081873      -0.08589177       0.00000000
Si      -0.01747428       2.68690520       2.53777513       0.00000000
Si       2.55368395       0.04772970      -2.78958624       0.00000000
Si      -2.72875584       2.67120164       0.00309257       0.00000000
