10
Lattice="16.290000149 0.0 0.0 0.0 16.290000149 0.0 0.0 0.0 29.1751946751" Properties=species:S:1:pos:R:3:initial_magmoms:R:1 pbc="T T T"
Si       1.53609814      -1.27096210      -1.19770009       0.00000000
Si       1.39685122       1.32147739       1.36267707       0.00000000
Si      -1.21593448      -1.43490466       1.44174768       0.00000000
Si      -1.46834803       1.20966283      -1.45619232       0.00000000
H        0.35895015      -1.80032195      -2.26183614       0.00000000
Si      -2.66954006       2.68135031      -0.02794984       0.00000000
Si       2.85445649       2.50201370      -0.05447009       0.00000000
Si      -2.64763001      -0.06330294       2.72534538       0.00000000
Si      -0.13737357       2.53985537      -2.85701011       0.00000000
Si       0.06590934       2.76082923       2.67667532       0.00000000
