10
Lattice="16.290000149 0.0 0.0 0.0 16.290000149 0.0 0.0 0.0 29.1751946751" Properties=species:S:1:pos:R:3:initial_magmoms:R:1 pbc="T T T"
Si      -0.22051773       2.13081347       0.92642913       0.00000000
Si       0.36382086      -1.95398552       1.35005296       0.00000000
Si      -1.82992088      -0.76805722      -1.36081861       0.00000000
Si       2.12946140       0.58525084      -0.99186909       0.00000000
H        2.20859822      -0.24259068       1.58199576       0.00000000
H       -1.34594497       2.19519155       1.93761220       0.00000000
H        2.86531329      -0.65585170       1.62806339       0.00000000
Si       1.97517881      -2.74367586      -0.14963957       0.00000000
H       -1.03736350      -1.09942840       3.03089427       0.00000000
H        1.02755692      -1.89615602       2.70459890       0.00000000
