10
Lattice="16.290000149 0.0 0.0 0.0 16.290000149 0.0 0.0 0.0 29.1751946751" Properties=species:S:1:pos:R:3:initial_magmoms:R:1 pbc="T T T"
Si       1.24779772      -1.37297008       1.41083072       0.00000000
Si      -1.28909287       1.44850681       1.32641522       0.00000000
Si       1.90684226       0.78885955      -1.12411442       0.00000000
Si      -1.83974375      -0.88207093      -1.18030584       0.00000000
H        0.69528979      -1.83270647      -1.92278829       0.00000000
Si       1.25618707       1.21327921      -3.25562788       0.00000000
Si       2.66717801       0.05693355       2.64496772       0.00000000
Si      -2.71793765       0.05624937       2.60458925       0.00000000
Si       2.74481616      -2.60854705       0.13010386       0.00000000
Si      -3.47661183       0.85105477      -1.25986076       0.00000000
