10
Lattice="16.290000149 0.0 0.0 0.0 16.290000149 0.0 0.0 0.0 29.1751946751" Properties=species:S:1:pos:R:3:initial_magmoms:R:1 pbc="T T T"
Si      -2.23112729       0.51228792      -0.32346538       0.00000000
Si       0.89322958      -1.42513066       1.58797667       0.00000000
Si       0.56078326      -1.03575079      -2.00955823       0.00000000
Si       1.24463746       1.78552574      -0.84351323       0.00000000
H       -0.01122381      -1.49682295       2.80790826       0.00000000
Si       0.60390289       1.10932783      -2.98972807       0.00000000
Si       2.78267412      -0.08539218       1.97518985       0.00000000
Si       3.30098934       1.17377922       0.04560083       0.00000000
Si      -1.06399765      -2.71932230      -2.07922860       0.00000000
Si       1.18506493       1.44335429       3.06336627       0.00000000
