10
Lattice="16.290000149 0.0 0.0 0.0 16.290000149 0.0 0.0 0.0 29.1751946751" Properties=species:S:1:pos:R:3:initial_magmoms:R:1 pbc="T T T"
Si      -1.32783049       1.35861859       1.36598261       0.00000000
Si       1.37692855      -1.34039008       1.35816366       0.00000000
Si       1.41056740       1.40465413      -1.25787101       0.00000000
Si      -1.41938029      -1.42990363      -1.23413699       0.00000000
Si       0.07763814      -2.66548060      -2.51486385       0.00000000
Si       2.66937716       0.00451233      -2.62248823       0.00000000
Si      -2.66717801      -0.05693355      -2.64496772       0.00000000
Si       0.05025465       2.72285723       2.67060979       0.00000000
Si      -2.64463265       2.75144619       0.02602427       0.00000000
Si       0.09492183       2.66869298      -2.72922568       0.00000000
