10
Lattice="16.290000149 0.0 0.0 0.0 16.290000149 0.0 0.0 0.0 29.1751946751" Properties=species:S:1:pos:R:3:initial_magmoms:R:1 pbc="T T T"
Si      -1.28650276      -1.43855102       1.28090775       0.00000000
Si       1.30520368      -1.41206348      -1.33943319       0.00000000
Si      -1.43198875       1.62716185      -0.93071789       0.00000000
Si       1.18980532       1.16676246       1.68288358       0.00000000
Si      -0.80500294       2.03977127       2.66775063       0.00000000
Si      -2.31658463       0.18567929       2.59624222       0.00000000
Si       2.55208916       2.56308752       0.22278179       0.00000000
Si       0.24837363      -2.42580648       2.78544336       0.00000000
Si      -0.11769525       2.63864054      -2.59764263       0.00000000
Si       1.77272669      -0.56708488       3.21020502       0.00000000
