10
Lattice="16.290000149 0.0 0.0 0.0 16.290000149 0.0 0.0 0.0 29.1751946751" Properties=species:S:1:pos:R:3:initial_magmoms:R:1 pbc="T T T"
Si      -1.35808754      -1.35428545       1.35253285       0.00000000
Si      -1.38846187       1.34998489      -1.33047640       0.00000000
Si       1.31856148      -1.36150192      -1.39127751       0.00000000
Si       1.37073835       1.36155079       1.35081151       0.00000000
Si      -0.01317861       2.69889464      -2.68079194       0.00000000
Si       2.68482008      -2.71841006      -0.06217234       0.00000000
Si       0.01106091      -2.69296508       2.71597722       0.00000000
Si       2.68700294      -0.01720224      -2.73356987       0.00000000
Si      -2.70023644       0.00623907       2.72119958       0.00000000
Si      -2.70300399      -0.01495422      -2.72557586       0.00000000
