10
Lattice="16.290000149 0.0 0.0 0.0 16.290000149 0.0 0.0 0.0 29.1751946751" Properties=species:S:1:pos:R:3:initial_magmoms:R:1 pbc="T T T"
Si       1.29832930       1.29880171      -1.49662914       0.00000000
Si       1.25846767      -1.64498051       1.15519183       0.00000000
Si      -0.99530272       1.77029948       1.26483221       0.00000000
Si      -1.29780802      -1.67583377      -1.17523519       0.00000000
H        0.22097385      -2.74849770       1.36709127       0.00000000
H       -3.05699772      -1.03759156       0.35316573       0.00000000
H       -2.48456711      -1.16729254      -1.97521903       0.00000000
H       -0.30271707      -1.20917413       3.18038797       0.00000000
H       -1.86101849       0.49340781      -3.07920840       0.00000000
Si      -2.53017911       2.75755494      -0.23970340       0.00000000
