10
Lattice="16.290000149 0.0 0.0 0.0 16.290000149 0.0 0.0 0.0 29.1751946751" Properties=species:S:1:pos:R:3:initial_magmoms:R:1 pbc="T T T"
Si      -1.35273790      -1.27809712       1.37692331       0.00000000
Si       1.25693641       1.31771766       1.46876683       0.00000000
Si       1.36576990      -1.36943515      -1.34453885       0.00000000
Si      -1.42073236       1.36330034      -1.30267244       0.00000000
Si       2.41808762       2.75784816      -0.03696497       0.00000000
Si       2.70954830       0.00817758      -2.65928982       0.00000000
Si      -0.04217481      -2.69513165      -2.70101035       0.00000000
Si      -0.11319921       2.71306694      -2.72233742       0.00000000
Si      -2.75674044      -2.68348430       0.07597221       0.00000000
Si      -2.76612348       0.01637145      -2.68928192       0.00000000
