10
Lattice="16.290000149 0.0 0.0 0.0 16.290000149 0.0 0.0 0.0 29.1751946751" Properties=species:S:1:pos:R:3:initial_magmoms:R:1 pbc="T T T"
Si       0.17884791      -1.38740954      -0.61057847       0.00000000
Si      -0.69528979       1.83270647       1.92278829       0.00000000
Si      -0.50588595       1.28308186      -2.39379555       0.00000000
Si      -2.53503353       0.95063554       0.74248245       0.00000000
Si      -2.44001396       0.25523172      -1.48268339       0.00000000
Si       1.21155247       2.62156601       0.79867387       0.00000000
Si       2.04952637      -0.77584058       2.05289215       0.00000000
Si       1.01170675      -2.63127485       1.10199670       0.00000000
Si       2.91577971       0.95280211       0.67249582       0.00000000
Si       2.07570440      -1.36977724      -1.94653981       0.00000000
