10
Lattice="16.290000149 0.0 0.0 0.0 16.290000149 0.0 0.0 0.0 29.1751946751" Properties=species:S:1:pos:R:3:initial_magmoms:R:1 pbc="T T T"
Si       1.36862065      -1.34842105       1.34135875       0.00000000
Si       1.37995849       1.34379469      -1.33470681       0.00000000
Si      -1.35086455       1.37652130       1.34833162       0.00000000
Si      -1.38020284      -1.34452774      -1.35617975       0.00000000
Si      -0.05452263       2.69003614      -2.59586295       0.00000000
Si      -0.00602730      -2.69035868       2.68455554       0.00000000
Si      -2.72727182       0.02129103       2.68128792       0.00000000
Si       2.72614781       0.01443294       2.69850128       0.00000000
Si       2.72432333      -2.70068654      -0.02433211       0.00000000
Si      -0.04396671      -2.78550858      -2.64528573       0.00000000
