10
Lattice="16.290000149 0.0 0.0 0.0 16.290000149 0.0 0.0 0.0 29.1751946751" Properties=species:S:1:pos:R:3:initial_magmoms:R:1 pbc="T T T"
Si       1.31054680      -1.42283377      -1.29780223       0.00000000
Si       1.41493312       1.29386584       1.34171556       0.00000000
Si      -1.29912751      -1.48760281       1.27082859       0.00000000
Si      -1.27799938       1.49457493      -1.34133162       0.00000000
Si       2.57408066       0.05408280      -2.63385109       0.00000000
Si      -2.68405445      -0.11621286       2.62079986       0.00000000
Si       0.03205872       2.64883547       2.66565380       0.00000000
Si      -2.63997371       0.15304455      -2.68339057       0.00000000
Si      -0.07827345      -2.44263665      -2.92332737       0.00000000
Si      -2.72430704       2.68763825       0.01430197       0.00000000
