10
Lattice="16.290000149 0.0 0.0 0.0 16.290000149 0.0 0.0 0.0 29.1751946751" Properties=species:S:1:pos:R:3:initial_magmoms:R:1 pbc="T T T"
H       -1.12542724       0.06437808       1.01118307       0.00000000
Si       0.22051773      -2.13081347      -0.92642913       0.00000000
Si       2.06317739       0.69012586       0.90276805       0.00000000
Si      -0.23304474       1.51752754      -1.83383604       0.00000000
H       -0.46525869       0.99321760       2.62384196       0.00000000
H       -2.05879538       1.82638595       1.45298305       0.00000000
Si       2.34997913      -1.54556263      -1.91829823       0.00000000
H        2.42911595      -2.37340415       0.65556662       0.00000000
Si       3.32071653       0.44681841      -1.03522343       0.00000000
Si       1.72418249       2.81171919       1.83336923       0.00000000
