10
Lattice="16.290000149 0.0 0.0 0.0 16.290000149 0.0 0.0 0.0 29.1751946751" Properties=species:S:1:pos:R:3:initial_magmoms:R:1 pbc="T T T"
H        0.94858300      -0.89940349       0.76158928       0.00000000
Si       1.33936381       1.31891986      -1.39480771       0.00000000
Si      -1.30868974      -1.46121301      -1.29441586       0.00000000
Si      -1.15652485       1.39979971       1.49569553       0.00000000
H       -1.11337264      -1.17662671       2.24001310       0.00000000
Si      -2.56081897       2.63081873       0.08589177       0.00000000
Si      -0.49588389      -2.50053131       2.64998293       0.00000000
Si      -2.65511038      -0.12372255      -2.66985124       0.00000000
Si      -0.00713502       2.67854843      -2.70369447       0.00000000
Si       2.73072530       2.66949119      -0.10438885       0.00000000
