10
Lattice="16.290000149 0.0 0.0 0.0 16.290000149 0.0 0.0 0.0 29.1751946751" Properties=species:S:1:pos:R:3:initial_magmoms:R:1 pbc="T T T"
Si       0.96930388      -1.46522035      -1.50374788       0.00000000
Si      -1.69139072       0.92763406      -1.31232943       0.00000000
Si      -1.26353386      -1.47691657       1.33604886       0.00000000
Si       1.50470731       1.28528101       1.28484640       0.00000000
H       -1.16129782       1.19223253      -2.69835541       0.00000000
Si      -0.93659356      -2.95935546      -1.80743249       0.00000000
Si      -2.65235411      -2.49671945      -0.28947628       0.00000000
Si      -2.57408066      -0.05408280       2.63385109       0.00000000
H        0.12368997       2.93904183      -2.26889654       0.00000000
Si       0.16272081       2.63985968       2.62975606       0.00000000
