10
Lattice="16.290000149 0.0 0.0 0.0 16.290000149 0.0 0.0 0.0 29.1751946751" Properties=species:S:1:pos:R:3:initial_magmoms:R:1 pbc="T T T"
Si      -1.35501850      -1.34456032       1.37517280       0.00000000
Si       1.33507954       1.35079939       1.39410750       0.00000000
Si      -1.37650501       1.34684092      -1.35968077       0.00000000
Si       1.36321237      -1.37300266      -1.34914853       0.00000000
Si       2.71437014      -2.69226461       0.05852544       0.00000000
Si       2.69882948       2.71191035       0.06412708       0.00000000
Si      -2.71526609      -2.69866658       0.02150212       0.00000000
Si      -0.02314809       2.74530486      -2.67886054       0.00000000
Si       2.73044837      -0.02381598      -2.70050853       0.00000000
Si      -2.72823293       2.71639010      -0.00154629       0.00000000
