10
Lattice="16.290000149 0.0 0.0 0.0 16.290000149 0.0 0.0 0.0 29.1751946751" Properties=species:S:1:pos:R:3:initial_magmoms:R:1 pbc="T T T"
Si       1.34249801       1.36076887       1.35381656       0.00000000
Si      -1.33675741       1.37542987      -1.35244532       0.00000000
Si       1.36561678      -1.35189082      -1.34871090       0.00000000
Si      -1.35405739      -1.34856766       1.37222611       0.00000000
Si      -2.69565293       0.00998577      -2.68300925       0.00000000
Si       2.67296096       0.00166158       2.71775691       0.00000000
Si      -0.00485442      -2.72095130      -2.67332309       0.00000000
Si       2.69389361      -2.71305065       0.02529489       0.00000000
Si      -2.68442912       2.72352512       0.01333306       0.00000000
Si       2.69316056       2.72642474      -0.00872338       0.00000000
