10
Lattice="16.290000149 0.0 0.0 0.0 16.290000149 0.0 0.0 0.0 29.1751946751" Properties=species:S:1:pos:R:3:initial_magmoms:R:1 pbc="T T T"
Si       1.36374994       1.36111096      -1.32998042       0.00000000
Si      -1.35009892       1.36480879       1.35553790       0.00000000
Si       1.38333052      -1.33815835       1.35051976       0.00000000
Si      -1.33507954      -1.35079939      -1.39410750       0.00000000
Si       2.69998607      -0.07986987      -2.61908640       0.00000000
Si      -2.69009804      -2.69535971      -0.01893470       0.00000000
Si      -0.02086749       2.71854038      -2.66853836       0.00000000
Si       0.02296890      -2.70063767       2.69453345       0.00000000
Si      -2.71854038       0.02050911       2.69783025       0.00000000
Si       0.01668096       2.72692973       2.70748724       0.00000000
