10
Lattice="16.290000149 0.0 0.0 0.0 16.290000149 0.0 0.0 0.0 29.1751946751" Properties=species:S:1:pos:R:3:initial_magmoms:R:1 pbc="T T T"
Si      -0.11854233       2.30485909       0.23477279       0.00000000
Si       1.60215409       0.07459191      -1.79094850       0.00000000
Si       0.28724157      -0.88629004       2.24132598       0.00000000
Si      -2.12742515      -0.96914098      -0.67951946       0.00000000
H        1.09758763      -2.74934478       0.05817534       0.00000000
H        2.53236197      -1.84129130       0.60841951       0.00000000
Si      -1.86396698       1.98263474       1.72793008       0.00000000
Si      -1.90708661      -0.16244388       2.70809992       0.00000000
Si       3.17899353      -1.01444347      -0.46837858       0.00000000
Si      -1.04391208      -2.38783709      -2.17857014       0.00000000
