10
Lattice="16.290000149 0.0 0.0 0.0 16.290000149 0.0 0.0 0.0 29.1751946751" Properties=species:S:1:pos:R:3:initial_magmoms:R:1 pbc="T T T"
Si      -1.12821283      -0.41249538      -0.96345245       0.00000000
H        2.07128981      -1.89550442       0.35652088       0.00000000
Si      -0.29232405       1.02170881      -2.63735007       0.00000000
Si       0.65852326      -0.62522650       2.95433856       0.00000000
Si       0.13737357       2.85918825      -1.18174126       0.00000000
Si      -1.39913182      -1.64118494       2.23088126       0.00000000
Si       2.05115537       1.12054024       2.05711380       0.00000000
Si      -1.88463410      -2.54643653       0.13263043       0.00000000
Si      -0.36069318      -2.72986193      -1.62686721       0.00000000
Si       1.20912526       2.95797081       0.91840595       0.00000000
