10
Lattice="16.290000149 0.0 0.0 0.0 16.290000149 0.0 0.0 0.0 29.1751946751" Properties=species:S:1:pos:R:3:initial_magmoms:R:1 pbc="T T T"
H       -0.65671507       0.41326101      -0.04606763       0.00000000
Si       1.97938163       0.60777991       1.08628002       0.00000000
H       -1.83775637      -1.24030432       1.07653551       0.00000000
Si       0.75831580      -0.55325728      -2.50442789       0.00000000
Si       0.19921041       2.15596523       1.72081133       0.00000000
Si      -2.50149242      -1.29813382      -0.27801043       0.00000000
Si      -0.89013448      -2.08782416      -1.77770296       0.00000000
Si       2.62045829       0.27471456      -1.24306752       0.00000000
Si       1.21121038      -1.25810929       2.36975519       0.00000000
Si      -0.73585189       1.24110253      -2.61993248       0.00000000
