10
Lattice="16.290000149 0.0 0.0 0.0 16.290000149 0.0 0.0 0.0 29.1751946751" Properties=species:S:1:pos:R:3:initial_magmoms:R:1 pbc="T T T"
Si      -1.34642064       1.33749046      -1.37543538       0.00000000
Si       1.30868974       1.46121301       1.29441586       0.00000000
Si      -1.41967514      -1.30980235       1.35810531       0.00000000
Si       1.41903820      -1.35356218      -1.33281042       0.00000000
H        2.25727274       0.56180953       2.05600514       0.00000000
H        0.19531710       0.28458630       3.53442896       0.00000000
Si      -0.03671766      -2.72202644       2.56403281       0.00000000
Si      -2.65123958      -2.67059403      -0.07054562       0.00000000
Si      -2.61569331       2.70827768       0.03856961       0.00000000
Si       0.07364709      -2.70049106      -2.71941990       0.00000000
