10
Lattice="16.290000149 0.0 0.0 0.0 16.290000149 0.0 0.0 0.0 29.1751946751" Properties=species:S:1:pos:R:3:initial_magmoms:R:1 pbc="T T T"
H       -1.17714799      -0.52935984      -1.06413605       0.00000000
Si      -1.53609814       1.27096210       1.19770009       0.00000000
Si       1.14245029      -1.50439780       1.37744934       0.00000000
Si       1.66792334       0.78758893      -1.44449306       0.00000000
Si      -2.47573793      -1.08766702      -1.97676532       0.00000000
Si       3.08014581      -1.16678755      -1.45715510       0.00000000
Si      -0.13924692       2.59243949       2.56037716       0.00000000
Si       2.64737263      -0.11893329       2.54575455       0.00000000
Si       2.77981848       2.49445514      -0.20165895       0.00000000
Si       2.40554758      -2.93280276       0.05096907       0.00000000
