10
Lattice="16.290000149 0.0 0.0 0.0 16.290000149 0.0 0.0 0.0 29.1751946751" Properties=species:S:1:pos:R:3:initial_magmoms:R:1 pbc="T T T"
Si       0.84203011      -1.83743057       1.13870785       0.00000000
Si      -1.71967016       0.75825064       1.37864465       0.00000000
Si      -1.07175169      -0.09878256      -2.10014721       0.00000000
Si       1.80299351       1.58692294       0.11585470       0.00000000
H        2.33308640       1.85152142      -1.27017128       0.00000000
H       -1.20912526      -2.95797081      -0.91840595       0.00000000
Si      -0.35769582       2.09978102       2.72070360       0.00000000
H        1.67291786       0.92268190      -2.88283016       0.00000000
Si       2.55779066      -2.30006657      -0.37924836       0.00000000
Si      -0.61867792       2.11118402      -2.71457681       0.00000000
