10
Lattice="16.290000149 0.0 0.0 0.0 16.290000149 0.0 0.0 0.0 29.1751946751" Properties=species:S:1:pos:R:3:initial_magmoms:R:1 pbc="T T T"
Si      -1.37155285       1.35983708      -1.31270871       0.00000000
Si      -1.38735415      -1.35935164       1.30375192       0.00000000
Si       1.32429556      -1.35119035      -1.38436299       0.00000000
Si       1.35567010       1.37220119       1.33724505       0.00000000
Si      -0.00493587      -2.70492194       2.63971326       0.00000000
Si      -0.02537982       2.68933241      -2.65866255       0.00000000
Si       2.67454109       0.04266846      -2.69541163       0.00000000
Si       2.73825129       0.01242927       2.65870632       0.00000000
Si      -2.70511742       0.01117494       2.69249119       0.00000000
Si      -0.00503361       2.72935694       2.67583215       0.00000000
