10
Lattice="16.290000149 0.0 0.0 0.0 16.290000149 0.0 0.0 0.0 29.1751946751" Properties=species:S:1:pos:R:3:initial_magmoms:R:1 pbc="T T T"
Si       2.20079531      -0.38454174       0.79729972       0.00000000
Si       0.03280806       2.29798145       0.66528196       0.00000000
Si       0.17264142      -0.41640498      -2.35058708       0.00000000
Si      -1.53516961      -1.37641053       1.25917223       0.00000000
H       -2.19851471      -0.21613572      -1.39480771       0.00000000
H       -0.27978075       2.66139506      -1.85244981       0.00000000
Si      -0.51321645       1.75591541      -3.04907042       0.00000000
Si       0.46890765       2.04398777       2.94291064       0.00000000
Si       2.10577574       0.31086207       3.02246556       0.00000000
Si       1.89861581       3.18291942      -0.61583001       0.00000000
