10
Lattice="16.290000149 0.0 0.0 0.0 16.290000149 0.0 0.0 0.0 29.1751946751" Properties=species:S:1:pos:R:3:initial_magmoms:R:1 pbc="T T T"
Si       1.76712293       1.01380816       1.15597956       0.00000000
Si       1.33966681      -1.30916215      -1.41811869       0.00000000
Si      -1.23680197       1.48524076      -1.36341520       0.00000000
Si      -1.29832930      -1.29880171       1.49662914       0.00000000
Si      -2.29363202       0.47149776       2.76146135       0.00000000
H       -3.15934779      -0.80539390      -1.58257926       0.00000000
Si      -2.51271623       0.02145393      -2.65937735       0.00000000
Si       3.41449806      -0.64858636       1.24989451       0.00000000
Si       2.75344986      -2.53643447      -0.03781105       0.00000000
Si       2.80236873       0.07724718      -2.63411163       0.00000000
