10
Lattice="16.290000149 0.0 0.0 0.0 16.290000149 0.0 0.0 0.0 29.1751946751" Properties=species:S:1:pos:R:3:initial_magmoms:R:1 pbc="T T T"
Si       1.80981902      -0.88036048       1.16435284       0.00000000
Si      -0.86222971       1.78782752       1.27279704       0.00000000
Si       1.11060334       1.45207432      -1.54803583       0.00000000
Si      -1.04014909      -2.14342193      -0.37586403       0.00000000
H       -1.91102879      -0.58697758      -1.91316339       0.00000000
Si       2.60752403       2.46148418      -0.08402456       0.00000000
Si      -0.07159455      -2.54793196      -2.53053969       0.00000000
Si      -1.75778876       0.71871481       3.12755169       0.00000000
H        3.17860257      -0.61743988      -1.74855694       0.00000000
Si       0.99616609       3.25117452       1.41566797       0.00000000
