10
Lattice="16.290000149 0.0 0.0 0.0 16.290000149 0.0 0.0 0.0 29.1751946751" Properties=species:S:1:pos:R:3:initial_magmoms:R:1 pbc="T T T"
Si       1.36070371      -1.35715575      -1.33858711       0.00000000
Si       1.37270944       1.34803009       1.34194225       0.00000000
Si      -1.34307793      -1.35547788       1.36644942       0.00000000
Si      -1.32937804       1.37046142      -1.37184683       0.00000000
Si       0.00348606       2.70466130       2.67612391       0.00000000
Si       2.70933653       0.01656693      -2.67556958       0.00000000
Si       0.04678488      -2.70396083       2.69949324       0.00000000
Si       0.00503361      -2.72935695      -2.67583215       0.00000000
Si      -2.68785002       2.72590346      -0.01733007       0.00000000
Si      -2.70008381      -2.71818200       0.01665904       0.00000000
