10
Lattice="16.290000149 0.0 0.0 0.0 16.290000149 0.0 0.0 0.0 29.1751946751" Properties=species:S:1:pos:R:3:initial_magmoms:R:1 pbc="T T T"
Si       0.67759885      -2.05129058      -0.77042937       0.00000000
Si      -1.80981902       0.88036048      -1.16435284       0.00000000
Si      -0.59505742      -0.52854534       2.18484280       0.00000000
Si       1.76215448       1.48558285      -0.33601072       0.00000000
H        1.36878355       0.26292060      -2.91290979       0.00000000
Si       0.14423166       1.52928892       3.06742162       0.00000000
Si      -2.84996811      -1.26306145      -1.54021688       0.00000000
Si       2.13381083       2.12897270       1.89072767       0.00000000
Si      -0.69921568       2.33243480      -2.71238867       0.00000000
Si       0.79770502       3.34184466      -1.24837740       0.00000000
