10
Lattice="16.290000149 0.0 0.0 0.0 16.290000149 0.0 0.0 0.0 29.1751946751" Properties=species:S:1:pos:R:3:initial_magmoms:R:1 pbc="T T T"
Si      -1.21292083      -1.32036967       1.50013016       0.00000000
Si       1.53354061       0.72210313       1.61516795       0.00000000
Si       0.61605523      -1.07339698      -2.05025763       0.00000000
Si      -1.49566636       1.86452084      -0.34972306       0.00000000
H        1.82754254      -1.86864221       0.74924817       0.00000000
H        3.06009282       0.26471250      -0.97124223       0.00000000
Si      -1.86732272       1.22113099      -2.57646144       0.00000000
Si       3.15749073       1.37314927       0.04002837       0.00000000
Si       0.30004551       2.57354309       2.27411890       0.00000000
Si      -2.54894519       0.22201641       2.65800611       0.00000000
