10
Lattice="16.290000149 0.0 0.0 0.0 16.290000149 0.0 0.0 0.0 29.1751946751" Properties=species:S:1:pos:R:3:initial_magmoms:R:1 pbc="T T T"
H        1.07597080      -1.71216047      -0.78921848       0.00000000
Si      -0.24552288       0.51290694      -2.30014346       0.00000000
Si       1.94184947       0.85305844       1.06158585       0.00000000
Si      -1.74547352       1.54100143       0.45579502       0.00000000
Si      -0.83528605      -1.99682822       1.09256407       0.00000000
Si       0.71006482       2.05310903       2.65918158       0.00000000
Si      -2.17344440      -0.84315412       2.64960336       0.00000000
Si       1.97954453      -2.45208485      -1.76652915       0.00000000
Si      -2.14462739      -0.78794731      -2.93079447       0.00000000
Si      -0.70765390       3.39643571       1.40669047       0.00000000
