10
Lattice="16.290000149 0.0 0.0 0.0 16.290000149 0.0 0.0 0.0 29.1751946751" Properties=species:S:1:pos:R:3:initial_magmoms:R:1 pbc="T T T"
Si      -1.40047624       1.17038764      -1.46264003       0.00000000
Si      -1.45760527      -1.18053631       1.41714715       0.00000000
Si       1.46146013      -1.27852066      -1.34488895       0.00000000
Si       1.22133576       1.48895488       1.39745681       0.00000000
H       -2.30404996       1.91031203      -0.48532936       0.00000000
Si       2.65037439       0.41764302      -2.53421576       0.00000000
Si      -0.07012079      -2.54202194       2.77267338       0.00000000
Si      -2.85445649      -2.50201370       0.05447009       0.00000000
Si       2.60629365       0.14838561       2.76997467       0.00000000
Si      -0.24711165       2.81134452      -2.64242656       0.00000000
