10
Lattice="16.290000149 0.0 0.0 0.0 16.290000149 0.0 0.0 0.0 29.1751946751" Properties=species:S:1:pos:R:3:initial_magmoms:R:1 pbc="T T T"
Si       1.34654444       1.34807896      -1.36825828       0.00000000
Si       1.35097532      -1.35923761       1.35976830       0.00000000
Si      -1.33024894       1.34954506       1.39092741       0.00000000
Si      -1.36437222      -1.32981787      -1.37911145       0.00000000
Si       2.67733972       2.69286734       0.04697206       0.00000000
Si      -2.70492520      -2.68307705       0.00641854       0.00000000
Si      -2.69884903       2.70635546       0.05053144       0.00000000
Si       2.69131654       0.00299736       2.72522576       0.00000000
Si       2.69827237      -0.02147022      -2.72639277       0.00000000
Si      -2.67793267      -0.00464265       2.74760313       0.00000000
