10
Lattice="16.290000149 0.0 0.0 0.0 16.290000149 0.0 0.0 0.0 29.1751946751" Properties=species:S:1:pos:R:3:initial_magmoms:R:1 pbc="T T T"
Si      -1.38140830      -1.27237933      -1.38727496       0.00000000
Si       1.20544372      -1.39647655       1.43920944       0.00000000
Si      -1.41783274       1.38515500       1.28025131       0.00000000
Si       1.87624964       0.80404183      -1.18513434       0.00000000
Si       2.52138251      -2.71907633       0.03848792       0.00000000
Si       2.63492381       0.00923643       2.67931567       0.00000000
Si       2.68842017       2.66668931      -0.01442130       0.00000000
Si       3.51311772      -0.92908387      -1.10557941       0.00000000
Si      -2.71855667      -2.67711980      -0.03203728       0.00000000
Si      -0.09573633       2.72549621       2.67377239       0.00000000
