10
Lattice="16.290000149 0.0 0.0 0.0 16.290000149 0.0 0.0 0.0 29.1751946751" Properties=species:S:1:pos:R:3:initial_magmoms:R:1 pbc="T T T"
Si       1.36865323      -1.34208424       1.35399161       0.00000000
Si       1.37640727       1.35523027      -1.33295629       0.00000000
Si      -1.32009274       1.36819711       1.38366278       0.00000000
Si      -1.36677988      -1.36212094      -1.35194935       0.00000000
Si      -0.02023218      -2.70166394       2.66751722       0.00000000
Si      -0.00617391       2.71500220      -2.65441756       0.00000000
Si       2.72727182      -0.02129103      -2.68128792       0.00000000
Si      -2.68304447       0.01663209       2.73243203       0.00000000
Si      -2.70995555       2.71668007       0.05061896       0.00000000
Si       2.72124452      -2.71164971       0.00326762       0.00000000
