10
Lattice="16.290000149 0.0 0.0 0.0 16.290000149 0.0 0.0 0.0 29.1751946751" Properties=species:S:1:pos:R:3:initial_magmoms:R:1 pbc="T T T"
Si       1.34600036      -1.36120707       1.35530449       0.00000000
Si      -1.31389456      -1.38350808      -1.36429045       0.00000000
Si      -1.37970763       1.34842268       1.34074607       0.00000000
Si       1.32397628       1.38398375      -1.36186891       0.00000000
Si      -2.63012804       0.05164419      -2.64064687       0.00000000
Si       2.67956493      -0.01254493      -2.64989541       0.00000000
Si      -0.00923643       2.71748316       2.66535826       0.00000000
Si       2.66376363      -2.73173366      -0.03343477       0.00000000
Si       2.70300624       0.00149705       2.70509488       0.00000000
Si      -0.02928290      -2.71011683       2.70562003       0.00000000
