10
Lattice="16.290000149 0.0 0.0 0.0 16.290000149 0.0 0.0 0.0 29.1751946751" Properties=species:S:1:pos:R:3:initial_magmoms:R:1 pbc="T T T"
Si      -1.33916019       1.35736426      -1.36434880       0.00000000
Si       1.34970796       1.38616498       1.32481642       0.00000000
Si       1.38794059      -1.35104374      -1.33351062       0.00000000
Si      -1.35066256      -1.36565587       1.36253994       0.00000000
Si       2.66054798      -0.04124628       2.62048681       0.00000000
Si      -2.66677076       2.70659981       0.02967117       0.00000000
Si       0.03992679      -2.71292033      -2.68403038       0.00000000
Si      -2.69166188       0.00534312      -2.72510906       0.00000000
Si      -2.69316056      -2.72642474       0.00872338       0.00000000
Si       0.01909188       2.71036280      -2.72598431       0.00000000
