10
Lattice="16.290000149 0.0 0.0 0.0 16.290000149 0.0 0.0 0.0 29.1751946751" Properties=species:S:1:pos:R:3:initial_magmoms:R:1 pbc="T T T"
Si       1.37047120       1.36906048       1.32461219       0.00000000
Si       1.37970763      -1.34842268      -1.34074607       0.00000000
Si      -1.32535441       1.38359116      -1.35962242       0.00000000
Si      -1.35174421      -1.35170186       1.37286796       0.00000000
Si      -2.68367978      -2.70635546      -0.01041554       0.00000000
Si      -2.69303024       0.03453480      -2.69794695       0.00000000
Si       0.00485442       2.72095130       2.67332309       0.00000000
Si       2.69874803       0.00790065       2.69861798       0.00000000
Si       2.70368390       0.03556107      -2.70261498       0.00000000
Si      -2.69079851       2.73093707      -0.00968616       0.00000000
