10
Lattice="16.290000149 0.0 0.0 0.0 16.290000149 0.0 0.0 0.0 29.1751946751" Properties=species:S:1:pos:R:3:initial_magmoms:R:1 pbc="T T T"
Si      -1.34600036       1.36120707      -1.35530449       0.00000000
Si       1.35700588       1.36270412       1.34979038       0.00000000
Si      -1.37528326      -1.34890975       1.35031554       0.00000000
Si       1.31776327      -1.37052658      -1.38873927       0.00000000
Si       0.01317861      -2.69889464       2.68079194       0.00000000
Si      -2.65989492      -0.02230101      -2.71959495       0.00000000
Si       2.70511742      -0.01117494      -2.69249119       0.00000000
Si      -0.02695995       2.71753040       2.68405956       0.00000000
Si      -2.68982538      -2.71384886      -0.04478392       0.00000000
Si       2.70018155      -2.71609688      -0.05277793       0.00000000
