10
Lattice="16.28999089631971 0.0 0.0 0.0 16.28999089631971 0.0 0.0 0.0 34.61538196595647" Properties=species:S:1:pos:R:3:initial_magmoms:R:1 pbc="T T T"
Si      -0.66188292       1.82482209       1.32185837       0.00000000
Si      -1.70693529      -1.62873936      -0.25324628       0.00000000
Si      -0.89233755       1.39084020      -1.81810472       0.00000000
Si       2.63903213      -1.07440695       1.12115823       0.00000000
Si       2.70082010      -0.88093062      -1.31313525       0.00000000
Si       0.83006347      -2.04825573       2.47203262       0.00000000
Si      -2.07595266       0.69007698       2.70691888       0.00000000
Si      -2.46694524       2.47046551      -0.28069629       0.00000000
Si       1.09216631       2.67046924      -2.00253558       0.00000000
Si      -3.34463415      -0.71980623       1.26304676       0.00000000
