10
Lattice="16.28999089631971 0.0 0.0 0.0 16.28999089631971 0.0 0.0 0.0 34.61538196595647" Properties=species:S:1:pos:R:3:initial_magmoms:R:1 pbc="T T T"
Si      -1.35422299      -1.35082123      -1.38153528       0.00000000
Si       1.36147585       1.36907839      -1.38233144       0.00000000
Si      -1.42092850       1.30316905       1.42283146       0.00000000
Si       1.23548899      -1.47302881       1.48908533       0.00000000
Si       2.70176818      -2.69738521      -0.02256924       0.00000000
Si      -2.70484114      -2.70450394      -0.00495000       0.00000000
Si       2.69794003       2.72357560      -0.01163077       0.00000000
Si       0.00243698      -2.70711034      -2.74323594       0.00000000
Si      -0.04624242       2.67740974       2.77220903       0.00000000
Si      -2.71212277       2.73911626       0.00692308       0.00000000
