10
Lattice="16.28999089631971 0.0 0.0 0.0 16.28999089631971 0.0 0.0 0.0 34.61538196595647" Properties=species:S:1:pos:R:3:initial_magmoms:R:1 pbc="T T T"
Si      -0.76041720       1.25659431       1.77853932       0.00000000
Si      -0.06973749       1.08699912      -2.06193561       0.00000000
Si      -1.90107558      -1.41406974      -0.21638087       0.00000000
Si       2.11949190      -0.99873990       0.72844651       0.00000000
Si       2.27880810       1.05357204      -2.01963559       0.00000000
Si       0.18751419      -0.26109612       3.38988625       0.00000000
Si       2.40872085       0.15964200       2.77819749       0.00000000
Si       1.39856166      -3.04686417       1.54820844       0.00000000
Si      -1.44327771      -2.39950723      -2.43259733       0.00000000
Si      -2.40787377      -2.03114146       2.13272411       0.00000000
