10
Lattice="16.28999089631971 0.0 0.0 0.0 16.28999089631971 0.0 0.0 0.0 34.61538196595647" Properties=species:S:1:pos:R:3:initial_magmoms:R:1 pbc="T T T"
Si       1.90107558       1.41406974       0.21638087       0.00000000
Si       0.45779787      -0.98543749      -2.21621645       0.00000000
Si      -2.27528946       0.94576482      -0.27100398       0.00000000
Si      -0.50679819      -0.61707172       2.34910498       0.00000000
Si       1.14065838       2.67066405       1.99492019       0.00000000
Si       1.83133809       2.50106886      -1.84555474       0.00000000
Si       1.56810798      -1.12691451       3.32872084       0.00000000
Si       1.30095198       0.84711258      -3.61132097       0.00000000
Si      -1.18745955       2.99268477       2.28112033       0.00000000
Si      -2.27804247       3.25865160       0.13690391       0.00000000
