10
Lattice="16.28999089631971 0.0 0.0 0.0 16.28999089631971 0.0 0.0 0.0 34.61538196595647" Properties=species:S:1:pos:R:3:initial_magmoms:R:1 pbc="T T T"
Si       1.35741312      -1.35221661      -1.35834296       0.00000000
Si      -1.35568638      -1.35625653       1.35744296       0.00000000
Si       1.35896067       1.35912357       1.35695835       0.00000000
Si      -1.35250983       1.36251189      -1.36041989       0.00000000
Si       2.69131977       0.03505608      -2.72118247       0.00000000
Si      -2.71249677      -2.71437012       0.00100385       0.00000000
Si      -2.71288773       0.00133578       2.71492054       0.00000000
Si       0.00148239      -2.71366965       2.71453977       0.00000000
Si       2.71573848      -2.71381626      -0.00110769       0.00000000
Si      -2.71404432       2.71606428      -0.00006923       0.00000000
