10
Lattice="16.28999089631971 0.0 0.0 0.0 16.28999089631971 0.0 0.0 0.0 34.61538196595647" Properties=species:S:1:pos:R:3:initial_magmoms:R:1 pbc="T T T"
Si      -1.34537481      -1.35728280      -1.36924681       0.00000000
Si       1.36293543       1.35941679      -1.36682374       0.00000000
Si      -1.34552142       1.24375779       1.49413918       0.00000000
Si       1.56248793      -1.12917393       1.37651605       0.00000000
Si       0.50841090       2.20874481       2.61193972       0.00000000
Si       2.45526138       0.72725076       2.65818590       0.00000000
Si      -2.39436936      -0.38276613       2.92112449       0.00000000
Si      -2.69889462       2.72088612       0.01630385       0.00000000
Si      -2.70733284       0.00430056      -2.72658593       0.00000000
Si      -2.72720664      -2.71060713       0.00339231       0.00000000
