10
Lattice="16.28999089631971 0.0 0.0 0.0 16.28999089631971 0.0 0.0 0.0 34.61538196595647" Properties=species:S:1:pos:R:3:initial_magmoms:R:1 pbc="T T T"
Si      -1.23504264      -1.29055896      -1.51778150       0.00000000
Si       2.25917865      -0.72195651      -0.08055004       0.00000000
Si      -0.28735560      -1.19355201       2.06390869       0.00000000
Si      -0.67046382       2.24391492      -0.64741185       0.00000000
Si      -2.44586205      -0.39045501       2.41362809       0.00000000
Si       3.06849843       1.05591780       1.28751985       0.00000000
Si       0.10536372      -3.36302163       1.23701598       0.00000000
Si       0.25011666       3.40713495       1.11285054       0.00000000
Si      -1.42708545      -3.41529624      -0.56627335       0.00000000
Si       2.91854898      -0.40149963      -2.35180498       0.00000000
