10
Lattice="16.28999089631971 0.0 0.0 0.0 16.28999089631971 0.0 0.0 0.0 34.61538196595647" Properties=species:S:1:pos:R:3:initial_magmoms:R:1 pbc="T T T"
Si      -1.50843771      -1.12458015       1.35147323       0.00000000
Si      -0.86294646       0.76300731      -2.08637408       0.00000000
Si       1.18781793       1.62725697       1.41300211       0.00000000
Si       1.76878449      -1.62280980      -0.58763105       0.00000000
Si       1.39390272       1.87810668      -2.02275098       0.00000000
Si       3.02513445       0.07882731      -1.85898551       0.00000000
Si      -0.01809819      -2.26204569       2.76147622       0.00000000
Si      -2.26944135      -2.93627250       0.04791205       0.00000000
Si       2.68540650       0.44341380       2.76611468       0.00000000
Si      -3.00426696       1.78574238      -1.73201622       0.00000000
