10
Lattice="16.28999089631971 0.0 0.0 0.0 16.28999089631971 0.0 0.0 0.0 34.61538196595647" Properties=species:S:1:pos:R:3:initial_magmoms:R:1 pbc="T T T"
Si       1.83324402       0.95369805      -1.13560497       0.00000000
Si      -1.17089262       1.38017025       1.53344151       0.00000000
Si      -1.66983903      -1.06020207      -1.36752439       0.00000000
Si       1.50503310      -1.33605693       1.50973342       0.00000000
Si      -2.51841771       2.61428436       0.08833850       0.00000000
Si      -3.30758676       0.86765427      -1.33709745       0.00000000
Si      -2.58002649      -2.77180866       0.10068236       0.00000000
Si       2.77136883      -2.67525783      -0.01638693       0.00000000
Si      -2.54107710       0.02226843       2.89658909       0.00000000
Si       0.17915742      -2.68780113       2.89686601       0.00000000
