10
Lattice="16.28999089631971 0.0 0.0 0.0 16.28999089631971 0.0 0.0 0.0 34.61538196595647" Properties=species:S:1:pos:R:3:initial_magmoms:R:1 pbc="T T T"
Si      -1.35726651      -1.35663120       1.35751219       0.00000000
Si       1.35790182       1.35822762       1.35688912       0.00000000
Si       1.36153449      -1.35355239      -1.36035066       0.00000000
Si      -1.35870003       1.35651717      -1.36062758       0.00000000
Si      -2.69936703      -0.01884753      -2.71240746       0.00000000
Si      -2.71480995       0.00083079       2.71426285       0.00000000
Si       0.00115659      -2.71472850       2.71498977       0.00000000
Si       2.71476108       2.71511946       0.00065769       0.00000000
Si       2.71573848       0.00068418       2.71426285       0.00000000
Si       2.71404432      -2.71606428       0.00006923       0.00000000
