10
Lattice="16.28999089631971 0.0 0.0 0.0 16.28999089631971 0.0 0.0 0.0 34.61538196595647" Properties=species:S:1:pos:R:3:initial_magmoms:R:1 pbc="T T T"
Si       1.35637056       1.35651717      -1.35692373       0.00000000
Si      -1.35821133      -1.35889551      -1.35619681       0.00000000
Si      -1.35835794       1.35583299       1.36118143       0.00000000
Si       1.35433431      -1.36058967       1.36180450       0.00000000
Si       2.71363707      -0.00110772      -2.71415900       0.00000000
Si      -0.00146610       2.71406061      -2.71429746       0.00000000
Si       2.71580364       2.71295289       0.00058846       0.00000000
Si      -0.00100998      -2.71648782      -2.71367439       0.00000000
Si      -2.71663443      -0.00079821      -2.71367439       0.00000000
Si       2.71450044      -2.71632492      -0.00038077       0.00000000
