10
Lattice="16.28999089631971 0.0 0.0 0.0 16.28999089631971 0.0 0.0 0.0 34.61538196595647" Properties=species:S:1:pos:R:3:initial_magmoms:R:1 pbc="T T T"
Si      -1.35239580       1.34920296      -1.38205451       0.00000000
Si      -0.82587042      -1.88677296       1.22372367       0.00000000
Si       1.39346289      -1.35324288      -1.40240837       0.00000000
Si       1.24625016       1.45541376       1.49181995       0.00000000
Si       1.12098006      -3.36826701       1.26996984       0.00000000
Si      -2.68403814      -0.01967832      -2.75566287       0.00000000
Si       2.88523593      -2.54925468      -0.02284616       0.00000000
Si       0.02925684       2.69781948      -2.74929363       0.00000000
Si       0.02865411      -2.73610098      -2.75503979       0.00000000
Si       2.74364325      -0.01892898      -2.76123595       0.00000000
