10
Lattice="16.28999089631971 0.0 0.0 0.0 16.28999089631971 0.0 0.0 0.0 34.61538196595647" Properties=species:S:1:pos:R:3:initial_magmoms:R:1 pbc="T T T"
Si      -0.73388079       2.07611163       0.83997733       0.00000000
Si       2.15269092      -0.71811207       0.76697345       0.00000000
Si      -1.12428693      -2.06671230       0.60438491       0.00000000
Si      -1.66983903       0.69292773      -2.56378970       0.00000000
Si      -1.05668343       2.70269019      -1.39378913       0.00000000
Si      -2.90900630      -0.78597621      -1.19956212       0.00000000
Si      -3.12384370      -0.70628553       1.18491980       0.00000000
Si       2.88078876      -1.24033689      -1.39333913       0.00000000
Si       1.02685644      -2.20532391      -2.51113967       0.00000000
Si      -0.68115006      -1.93003920       3.23377079       0.00000000
