10
Lattice="16.28999089631971 0.0 0.0 0.0 16.28999089631971 0.0 0.0 0.0 34.61538196595647" Properties=species:S:1:pos:R:3:initial_magmoms:R:1 pbc="T T T"
Si      -0.72809784       0.52222482       2.16031258       0.00000000
Si      -1.85393232      -0.96498702      -1.11780054       0.00000000
Si       0.82587042       1.88677296      -1.22372367       0.00000000
Si       1.94685048      -1.48149405       0.04624618       0.00000000
Si      -2.88078876       1.24033689       1.39333913       0.00000000
Si      -0.50841090      -2.20874481      -2.61193972       0.00000000
Si       1.03573449       1.93712535       2.68255514       0.00000000
Si       2.21933331       0.53353008      -2.62613204       0.00000000
Si       1.05407703      -3.33791874      -1.23542367       0.00000000
Si      -2.90278026      -2.59151094       0.30918476       0.00000000
