10
Lattice="16.28999089631971 0.0 0.0 0.0 16.28999089631971 0.0 0.0 0.0 34.61538196595647" Properties=species:S:1:pos:R:3:initial_magmoms:R:1 pbc="T T T"
Si      -1.06657146      -1.63365894      -1.30309678       0.00000000
Si       2.12375988      -0.98901477      -0.24694627       0.00000000
Si      -0.83261448      -0.46931490       2.21746261       0.00000000
Si       0.20808846       2.16329571      -1.10502746       0.00000000
Si       1.21764492       0.85802688      -2.98630529       0.00000000
Si       3.29411493       0.37172151       1.21818520       0.00000000
Si      -0.54618741      -0.55687365      -3.50854785       0.00000000
Si       1.51534467       3.52777869       0.42518097       0.00000000
Si      -0.16215066      -2.71322982       2.86487446       0.00000000
Si       3.00680820      -0.69895503      -2.46807811       0.00000000
