10
Lattice="16.28999089631971 0.0 0.0 0.0 16.28999089631971 0.0 0.0 0.0 34.61538196595647" Properties=species:S:1:pos:R:3:initial_magmoms:R:1 pbc="T T T"
Si      -1.99764270      -1.08196551       0.53169256       0.00000000
Si       2.19787938      -0.77498046       0.26570782       0.00000000
Si       0.20316888       1.97216514       1.27350061       0.00000000
Si      -0.17681166       1.00119969      -2.14300488       0.00000000
Si       2.08386567       0.81824670      -2.76172056       0.00000000
Si       2.64157011      -1.35001746      -1.96833556       0.00000000
Si      -1.26377820      -2.45992032       2.25007032       0.00000000
Si      -3.32353467       0.78693732       1.04908897       0.00000000
Si       1.16831880       3.48257394      -0.25238089       0.00000000
Si      -1.99611144       2.51644662       1.88640091       0.00000000
