10
Lattice="16.28999089631971 0.0 0.0 0.0 16.28999089631971 0.0 0.0 0.0 34.61538196595647" Properties=species:S:1:pos:R:3:initial_magmoms:R:1 pbc="T T T"
Si       2.07490617      -0.50984279       0.97961586       0.00000000
Si      -1.29606498      -1.95844963       0.29364245       0.00000000
Si      -1.07009010       1.75202860       1.32604679       0.00000000
Si       0.50679819       0.61707172      -2.34910498       0.00000000
Si       2.59538796       1.77004534       1.25716214       0.00000000
Si      -1.76849127       1.56283654      -2.62010896       0.00000000
Si      -2.25475266      -1.34296456       2.45523580       0.00000000
Si       0.48321027      -3.55651492       0.67939648       0.00000000
Si      -3.14111762       0.69181024       1.73492391       0.00000000
Si      -0.68066136       3.60975649      -0.06798465       0.00000000
