10
Lattice="16.28999089631971 0.0 0.0 0.0 16.28999089631971 0.0 0.0 0.0 34.61538196595647" Properties=species:S:1:pos:R:3:initial_magmoms:R:1 pbc="T T T"
Si       0.89060688       1.84834063      -1.09776480       0.00000000
Si       1.34752509      -1.23411411       1.44510300       0.00000000
Si      -0.78916905      -1.74663009      -1.42543596       0.00000000
Si      -1.39154067       1.46810475       1.42484953       0.00000000
Si       2.51841771      -2.61428436      -0.08833850       0.00000000
Si      -2.59813771      -2.72047887      -0.07456157       0.00000000
Si      -0.02265939      -2.59201593       2.80825059       0.00000000
Si       1.73617191       1.20179475      -3.20224451       0.00000000
Si      -0.90702720       3.51920105      -1.25661231       0.00000000
Si       2.69478954       0.12434157       2.80714289       0.00000000
