10
Lattice="16.28999089631971 0.0 0.0 0.0 16.28999089631971 0.0 0.0 0.0 34.61538196595647" Properties=species:S:1:pos:R:3:initial_magmoms:R:1 pbc="T T T"
Si       0.55607544      -0.69043536       2.22684338       0.00000000
Si       1.77837930       0.98403624      -1.34532757       0.00000000
Si      -1.90174347       1.58055421      -0.06563080       0.00000000
Si      -1.00649394      -1.81936494      -1.37637759       0.00000000
Si       0.44970174       2.19502441      -2.85185907       0.00000000
Si      -2.28024162      -0.52367463      -2.85528599       0.00000000
Si      -1.05858936       3.41310428      -1.46073532       0.00000000
Si      -2.98592442      -2.53032570      -0.23625011       0.00000000
Si       2.86169688       2.73902408      -0.08851158       0.00000000
Si      -3.74652081       0.70068177      -1.34363142       0.00000000
