10
Lattice="16.28999089631971 0.0 0.0 0.0 16.28999089631971 0.0 0.0 0.0 34.61538196595647" Properties=species:S:1:pos:R:3:initial_magmoms:R:1 pbc="T T T"
Si      -1.40098887       0.58357296       1.81855472       0.00000000
Si      -1.68098139      -0.96573636      -1.36301604       0.00000000
Si       1.95986619      -1.03979070       0.96750047       0.00000000
Si       1.53821583       1.50073254      -1.13368901       0.00000000
Si       1.92223629       3.12436517       0.55464258       0.00000000
Si      -3.00912138      -1.17739233       2.05269330       0.00000000
Si       3.64781970      -0.04121370      -1.16363133       0.00000000
Si      -0.94710060      -3.04184799      -2.20299337       0.00000000
Si      -0.06415002       1.68994089       3.49532476       0.00000000
Si       2.96942265      -2.34505953      -0.91377736       0.00000000
