10
Lattice="16.28999089631971 0.0 0.0 0.0 16.28999089631971 0.0 0.0 0.0 34.61538196595647" Properties=species:S:1:pos:R:3:initial_magmoms:R:1 pbc="T T T"
Si       0.59613255       1.60638948       1.57451614       0.00000000
Si       1.14802146      -1.83808215       0.85354657       0.00000000
Si       1.13736780       0.54341811      -2.01163943       0.00000000
Si      -2.26901781      -0.68072652      -0.45387714       0.00000000
Si      -1.59922188      -2.62528011      -1.66420465       0.00000000
Si      -0.17940177      -3.56759145       0.01623462       0.00000000
Si       2.98924758       1.23349509       1.85528166       0.00000000
Si      -3.17820506       1.27057113      -1.61622770       0.00000000
Si      -0.20942424       3.73436914       0.91644275       0.00000000
Si      -0.28655739       0.45134703      -3.84296724       0.00000000
