10
Lattice="16.28999089631971 0.0 0.0 0.0 16.28999089631971 0.0 0.0 0.0 34.61538196595647" Properties=species:S:1:pos:R:3:initial_magmoms:R:1 pbc="T T T"
Si       0.34653717       1.17529092       1.94330863       0.00000000
Si       1.29692835      -1.69191198      -1.01852357       0.00000000
Si      -2.07832707      -1.12598109      -0.04808079       0.00000000
Si      -0.30625200       1.91881539      -1.41632376       0.00000000
Si      -2.14747812      -1.15276185      -2.41805886       0.00000000
Si       0.05180220      -1.69704333      -3.03095915       0.00000000
Si      -1.69328034       2.57641011       1.73845468       0.00000000
Si       2.10031857       2.68542279       1.41012760       0.00000000
Si       0.75986334       3.71573012      -0.23431165       0.00000000
Si       0.92220948      -0.28597095       3.71675572       0.00000000
