10
Lattice="16.28999089631971 0.0 0.0 0.0 16.28999089631971 0.0 0.0 0.0 34.61538196595647" Properties=species:S:1:pos:R:3:initial_magmoms:R:1 pbc="T T T"
Si      -1.35426915       1.35941679      -1.35391219       0.00000000
Si      -1.35482301      -1.35726162       1.35751219       0.00000000
Si       1.35897696       1.35832536       1.35733912       0.00000000
Si       1.36044306      -1.35587371      -1.36100835       0.00000000
Si      -0.00114030       2.70195714      -2.70690707       0.00000000
Si      -2.70464499      -0.00350235      -2.71154554       0.00000000
Si      -2.71137276       2.71409319       0.00145385       0.00000000
Si      -2.71205694       0.00030951       2.71519746       0.00000000
Si      -2.71376739      -2.71486851       0.00048462       0.00000000
Si       0.00260640       2.71479366       2.71498977       0.00000000
