10
Lattice="16.28999089631971 0.0 0.0 0.0 16.28999089631971 0.0 0.0 0.0 34.61538196595647" Properties=species:S:1:pos:R:3:initial_magmoms:R:1 pbc="T T T"
Si       0.28233013      -2.30223312      -0.34539247       0.00000000
Si      -1.91062056       0.80298297       1.14403901       0.00000000
Si      -0.18440769       0.83886984      -2.28735110       0.00000000
Si       2.23629934       0.58912785       0.91353506       0.00000000
Si      -0.67442881       2.88766314       1.44411993       0.00000000
Si       2.52425767       2.28206610      -0.63910415       0.00000000
Si       2.50298293      -2.37000604      -1.05881590       0.00000000
Si       2.10031042       1.18110645      -2.68792053       0.00000000
Si      -0.75605800      -1.10451087      -3.50636708       0.00000000
Si       0.24241963      -3.41683402       1.68791620       0.00000000
