10
Lattice="16.28999089631971 0.0 0.0 0.0 16.28999089631971 0.0 0.0 0.0 34.61538196595647" Properties=species:S:1:pos:R:3:initial_magmoms:R:1 pbc="T T T"
Si      -0.89347392       0.45691495      -2.17197797       0.00000000
Si       1.22590395       2.07127024      -0.02710386       0.00000000
Si      -2.09414466       0.69921241       1.01194664       0.00000000
Si       1.24965477      -1.54844010       1.84905089       0.00000000
Si      -2.81507490      -1.34891186       1.83170858       0.00000000
Si      -0.53103771       3.68205802       0.03385386       0.00000000
Si      -0.84297492      -1.97465166       3.04321301       0.00000000
Si      -1.93482846       2.75152435      -1.73613545       0.00000000
Si       0.87842196       1.30267546      -3.49892476       0.00000000
Si       2.69223201       2.05149418      -2.02887790       0.00000000
