10
Lattice="16.28999089631971 0.0 0.0 0.0 16.28999089631971 0.0 0.0 0.0 34.61538196595647" Properties=species:S:1:pos:R:3:initial_magmoms:R:1 pbc="T T T"
Si       1.42029252      -0.20683413       1.83295473       0.00000000
Si       0.52281126       2.15694261      -0.74769267       0.00000000
Si      -2.22120666      -0.42073812       0.61168876       0.00000000
Si      -0.28922895      -1.15838190      -2.04975099       0.00000000
Si       1.10565117      -2.51212977       1.93984709       0.00000000
Si      -1.67710437       2.88186390      -0.52213871       0.00000000
Si      -3.16913805       1.09695231      -0.99965817       0.00000000
Si      -1.01015919      -3.20650617      -1.22998905       0.00000000
Si      -2.40872085      -0.15964200      -2.77819749       0.00000000
Si       3.52193058       0.50788962       1.14846978       0.00000000
