10
Lattice="16.28999089631971 0.0 0.0 0.0 16.28999089631971 0.0 0.0 0.0 34.61538196595647" Properties=species:S:1:pos:R:3:initial_magmoms:R:1 pbc="T T T"
Si      -0.85540419      -1.16752778       1.81357011       0.00000000
Si       0.31464135       2.30529564      -0.10689236       0.00000000
Si      -0.14371038      -1.32011621      -1.95833171       0.00000000
Si      -1.10565117       2.51212977      -1.93984709       0.00000000
Si       1.38828267      -1.41839378       2.74714748       0.00000000
Si       2.60868060       0.54265085       2.18056259       0.00000000
Si      -2.00516868      -2.89605968       0.66077340       0.00000000
Si      -0.77092425      -3.49404929      -1.22676982       0.00000000
Si       3.59585460       1.22637636       0.10076543       0.00000000
Si       1.94891931      -0.89390465      -3.15249383       0.00000000
