10
Lattice="16.28999089631971 0.0 0.0 0.0 16.28999089631971 0.0 0.0 0.0 34.61538196595647" Properties=species:S:1:pos:R:3:initial_magmoms:R:1 pbc="T T T"
Si      -1.72125027       1.02831602       1.18813903       0.00000000
Si       1.34045523      -1.03030733       1.64443925       0.00000000
Si       0.87040728       1.79914253      -1.32095833       0.00000000
Si      -1.06611534      -1.79691473      -1.18201211       0.00000000
Si      -2.45314368      -1.13932001       1.97276634       0.00000000
Si      -0.41332617      -2.54043920       2.17762028       0.00000000
Si       3.25312929      -1.44068501       0.39295404       0.00000000
Si      -2.89592217       2.07509513      -0.77254653       0.00000000
Si      -1.13920857       2.61484799      -2.37132807       0.00000000
Si       0.04323366      -1.78262840      -3.28126312       0.00000000
