10
Lattice="16.28999089631971 0.0 0.0 0.0 16.28999089631971 0.0 0.0 0.0 34.61538196595647" Properties=species:S:1:pos:R:3:initial_magmoms:R:1 pbc="T T T"
Si      -1.35697329       1.35446463       1.35768527       0.00000000
Si      -1.35690813      -1.35765747      -1.35633527       0.00000000
Si       1.35870003       1.35628911      -1.35647373       0.00000000
Si       1.35622395      -1.35604476       1.36356989       0.00000000
Si      -2.69348634       0.01433520       2.73316286       0.00000000
Si      -2.71319724       2.71383255      -0.00069231       0.00000000
Si      -2.71267596      -2.71547947       0.00038077       0.00000000
Si       0.00070047       2.71456560      -2.71402054       0.00000000
Si      -2.71516833      -0.00021177      -2.71453977       0.00000000
Si       2.71581993      -0.00070047      -2.71415900       0.00000000
