10
Lattice="16.28999089631971 0.0 0.0 0.0 16.28999089631971 0.0 0.0 0.0 34.61538196595647" Properties=species:S:1:pos:R:3:initial_magmoms:R:1 pbc="T T T"
Si       1.76425587       0.81901233      -1.29281601       0.00000000
Si      -0.89277345      -1.85642469      -1.28166985       0.00000000
Si       1.26493479      -0.23172525       2.07744331       0.00000000
Si      -1.94685048       1.48149405      -0.04624618       0.00000000
Si       0.32573484      -2.37097692       2.30687419       0.00000000
Si       0.27248283       2.01502413      -2.67237821       0.00000000
Si      -1.07805591      -3.30151059       0.53688487       0.00000000
Si      -2.45526138      -0.72725076      -2.65818590       0.00000000
Si       0.87804729       1.86163749       3.15453614       0.00000000
Si      -1.12098006       3.36826701      -1.26996984       0.00000000
