10
Lattice="16.28999089631971 0.0 0.0 0.0 16.28999089631971 0.0 0.0 0.0 34.61538196595647" Properties=species:S:1:pos:R:3:initial_magmoms:R:1 pbc="T T T"
Si       0.34784037      -1.18516266      -2.03424329       0.00000000
Si      -2.30985684      -0.29854683       0.52258871       0.00000000
Si      -0.15604191       2.34251829      -0.79497731       0.00000000
Si       1.78613334      -1.04423787       1.51916612       0.00000000
Si      -2.70257616       1.87092279       1.34948142       0.00000000
Si       2.44947843      -0.47043891      -2.71872823       0.00000000
Si       2.64187962      -2.94780745       0.25321166       0.00000000
Si      -2.41522056       3.06447480      -0.71442727       0.00000000
Si       0.03319902      -3.49045830      -1.92735093       0.00000000
Si      -2.84089455      -1.85233590       2.17633951       0.00000000
