10
Lattice="16.28999089631971 0.0 0.0 0.0 16.28999089631971 0.0 0.0 0.0 34.61538196595647" Properties=species:S:1:pos:R:3:initial_magmoms:R:1 pbc="T T T"
Si      -1.22171742      -1.95067863       0.13018852       0.00000000
Si      -1.23898482       1.08691767      -1.66628157       0.00000000
Si       2.29560309       0.12961953      -0.56329643       0.00000000
Si       0.13869306       1.00866051       2.14968565       0.00000000
Si       0.22493232       2.97356031      -1.44879301       0.00000000
Si       2.11600584       1.82109168      -2.21732415       0.00000000
Si      -2.02510764       1.74596220       2.42522425       0.00000000
Si       0.80319474      -0.86565060       3.59425558       0.00000000
Si       3.19653783      -2.01854277      -1.03877358       0.00000000
Si       3.45149262       1.57729554       1.00211587       0.00000000
