10
Lattice="16.28999089631971 0.0 0.0 0.0 16.28999089631971 0.0 0.0 0.0 34.61538196595647" Properties=species:S:1:pos:R:3:initial_magmoms:R:1 pbc="T T T"
Si       1.22171742       1.95067863      -0.13018852       0.00000000
Si       0.14489955      -1.30966713       1.91336631       0.00000000
Si      -2.10269691      -0.15252327      -0.98927355       0.00000000
Si      -0.43350948      -3.29333301       0.68701187       0.00000000
Si      -2.44312533      -2.47762755      -0.36335787       0.00000000
Si       2.48565852      -0.88510086       2.29943188       0.00000000
Si      -0.01726740       3.03759630      -1.79647010       0.00000000
Si      -3.47892498       1.35265644       0.18789240       0.00000000
Si       1.36041048       2.95933914       2.01949713       0.00000000
Si       3.51732051       2.08029816      -0.69348495       0.00000000
