10
Lattice="16.28999089631971 0.0 0.0 0.0 16.28999089631971 0.0 0.0 0.0 34.61538196595647" Properties=species:S:1:pos:R:3:initial_magmoms:R:1 pbc="T T T"
Si       0.46074636      -1.97012889      -1.16463518       0.00000000
Si       2.35128231       0.19800495       0.50825794       0.00000000
Si      -0.66450168       1.87431111      -1.44456993       0.00000000
Si      -1.43350371      -1.10019402       2.32923574       0.00000000
Si       1.65936456       1.47344679       2.30711650       0.00000000
Si       0.50977926       3.20186466       0.91412352       0.00000000
Si      -1.88001261      -2.39469516      -1.55070075       0.00000000
Si      -3.13059591      -1.98431748       0.55540411       0.00000000
Si       0.48614247      -0.14809239       3.72900784       0.00000000
Si      -0.80319474       0.86565060      -3.59425558       0.00000000
