10
Lattice="16.28999089631971 0.0 0.0 0.0 16.28999089631971 0.0 0.0 0.0 34.61538196595647" Properties=species:S:1:pos:R:3:initial_magmoms:R:1 pbc="T T T"
Si      -0.14489955       1.30966713      -1.91336631       0.00000000
Si      -0.57840903      -1.98366588      -1.22635444       0.00000000
Si       2.34075897       0.42456627       0.38606557       0.00000000
Si      -1.25058330       0.41037768       2.10610486       0.00000000
Si       1.88001261       2.39469516       1.55070075       0.00000000
Si      -2.58802488      -1.16796042      -2.27672418       0.00000000
Si      -2.24759646       1.15714386      -2.90263986       0.00000000
Si       1.20811527      -2.53003248      -2.77217441       0.00000000
Si       3.21132915      -1.32690195       1.95061248       0.00000000
Si       1.07681787       3.26034576      -2.04355483       0.00000000
