10
Lattice="16.28999089631971 0.0 0.0 0.0 16.28999089631971 0.0 0.0 0.0 34.61538196595647" Properties=species:S:1:pos:R:3:initial_magmoms:R:1 pbc="T T T"
Si       1.26288225      -1.28992365      -1.43767108       0.00000000
Si       1.38124539       1.32193350       1.36200873       0.00000000
Si      -1.33390665      -1.38727269       1.36283950       0.00000000
Si      -1.45161819       1.33999911      -1.55249036       0.00000000
Si      -0.65676393      -2.24202528      -2.83744318       0.00000000
Si      -2.46938481      -0.56555622      -2.72127389       0.00000000
Si       2.43610434       0.33161553      -2.85956242       0.00000000
Si      -2.71795392       2.67920001      -0.02637001       0.00000000
Si       0.02606400       2.68112223       2.72152862       0.00000000
Si      -2.69131977      -0.03505608       2.72118247       0.00000000
