10
Lattice="16.28999089631971 0.0 0.0 0.0 16.28999089631971 0.0 0.0 0.0 34.61538196595647" Properties=species:S:1:pos:R:3:initial_magmoms:R:1 pbc="T T T"
Si      -1.35881406       1.35606105       1.35519296       0.00000000
Si       1.35822762       1.35597960      -1.35709681       0.00000000
Si      -1.35744570      -1.35863487      -1.35709681       0.00000000
Si       1.35962856      -1.36135530       1.36208143       0.00000000
Si      -2.70899442       0.02174715       2.71402054       0.00000000
Si      -2.71233387       2.71243161       0.00017308       0.00000000
Si       0.00045612       2.71383255      -2.71433208       0.00000000
Si      -2.71450044      -0.00162900      -2.71457439       0.00000000
Si       2.71661814       2.71256193       0.00003462       0.00000000
Si       2.71536381      -0.00143352      -2.71453977       0.00000000
