10
Lattice="16.28999089631971 0.0 0.0 0.0 16.28999089631971 0.0 0.0 0.0 34.61538196595647" Properties=species:S:1:pos:R:3:initial_magmoms:R:1 pbc="T T T"
Si       1.35351981      -1.35637056       1.35501988       0.00000000
Si       1.35527913       1.35881406      -1.35713142       0.00000000
Si      -1.35943308      -1.35643572      -1.35751219       0.00000000
Si      -1.36086660       1.36037790       1.36696220       0.00000000
Si       0.00333945      -2.69068446       2.71384746       0.00000000
Si       2.71233387      -2.71243161      -0.00017308       0.00000000
Si       2.71278999       0.00140094      -2.71450516       0.00000000
Si      -2.71580364      -2.71295289      -0.00058846       0.00000000
Si      -0.00216657      -2.71406061      -2.71474746       0.00000000
Si       2.71236645       2.71669959      -0.00034615       0.00000000
