10
Lattice="16.28999089631971 0.0 0.0 0.0 16.28999089631971 0.0 0.0 0.0 34.61538196595647" Properties=species:S:1:pos:R:3:initial_magmoms:R:1 pbc="T T T"
Si       0.63190539      -1.32994818       1.78996240       0.00000000
Si       1.64967201       1.44967968      -0.82239270       0.00000000
Si      -0.94602546      -1.62336366      -1.45495455       0.00000000
Si      -1.86157233       1.04096358       1.05438512       0.00000000
Si       0.37988280       3.46911840      -0.41486558       0.00000000
Si      -3.20670279      -1.44041067      -0.83623886       0.00000000
Si      -0.83201175      -3.21659082       1.57247384       0.00000000
Si      -3.54419901       0.83445525      -0.53930795       0.00000000
Si       2.52297891      -2.48241681       1.02143126       0.00000000
Si       3.57249474       1.28200671       0.63775415       0.00000000
