10
Lattice="16.28999089631971 0.0 0.0 0.0 16.28999089631971 0.0 0.0 0.0 34.61538196595647" Properties=species:S:1:pos:R:3:initial_magmoms:R:1 pbc="T T T"
Si      -1.83324402      -0.95369805       1.13560497       0.00000000
Si      -0.57567231       1.46126187      -1.77344709       0.00000000
Si       1.09745730       1.74764007       1.27105850       0.00000000
Si       1.88537202      -1.84503798      -0.17996170       0.00000000
Si      -0.32821092      -2.28975498       2.64533839       0.00000000
Si       2.42004240       0.43561089       2.68154956       0.00000000
Si      -0.92220948       0.28597095      -3.71675572       0.00000000
Si       2.49735474       2.91441132      -0.22070403       0.00000000
Si       0.93812481      -3.62895588       1.11921804       0.00000000
Si       1.17810909       2.97139374      -2.30662811       0.00000000
