10
Lattice="16.28999089631971 0.0 0.0 0.0 16.28999089631971 0.0 0.0 0.0 34.61538196595647" Properties=species:S:1:pos:R:3:initial_magmoms:R:1 pbc="T T T"
Si       1.36186029       1.36449927      -1.34849834       0.00000000
Si      -1.35904212       1.35606105       1.36343143       0.00000000
Si       1.35762489      -1.35894438       1.36318912       0.00000000
Si      -1.38639303      -1.36086660      -1.38470951       0.00000000
Si       2.62707201      -0.01151703      -2.75609556       0.00000000
Si      -2.71226871      -2.71261080       0.00242308       0.00000000
Si      -2.71505430       2.71381626       0.00103846       0.00000000
Si       2.71494027       2.71425609       0.00671539       0.00000000
Si       2.71280628      -2.71813311       0.00366923       0.00000000
Si       2.71415835      -0.00053757       2.72004362       0.00000000
