10
Lattice="16.28999089631971 0.0 0.0 0.0 16.28999089631971 0.0 0.0 0.0 34.61538196595647" Properties=species:S:1:pos:R:3:initial_magmoms:R:1 pbc="T T T"
Si       0.35798904      -0.89878446      -2.16460489       0.00000000
Si      -0.67839705      -2.30384583       0.24985397       0.00000000
Si       2.07065448      -0.66806919       1.22202751       0.00000000
Si      -2.10960387       1.54194624       0.02994232       0.00000000
Si      -1.68795351      -0.99857700       2.13113180       0.00000000
Si      -0.38069730       0.36590598       3.66134023       0.00000000
Si       3.49904313       1.16069508       0.51019640       0.00000000
Si      -3.64781970       0.04121370       1.16363133       0.00000000
Si       0.24651657       2.53983906       2.92977834       0.00000000
Si      -1.72558341       3.16557887       1.71827391       0.00000000
