10
Lattice="16.28999089631971 0.0 0.0 0.0 16.28999089631971 0.0 0.0 0.0 34.61538196595647" Properties=species:S:1:pos:R:3:initial_magmoms:R:1 pbc="T T T"
Si      -0.31711743      -2.13226326       0.85555426       0.00000000
Si      -2.09588769       1.02379392       0.06255003       0.00000000
Si       1.88721279       0.59023557       1.29849293       0.00000000
Si       0.35546409      -0.01018125      -2.37676268       0.00000000
Si       3.10213728      -1.45200915       0.79733115       0.00000000
Si      -1.46867382       3.19772700      -0.66901186       0.00000000
Si      -3.40314390      -0.34068906      -1.46765840       0.00000000
Si      -1.26258903      -1.99303263       2.99637837       0.00000000
Si      -1.48747248      -3.49299954      -0.60957722       0.00000000
Si       1.70533494      -3.22195023       1.34446219       0.00000000
