10
Lattice="16.28999089631971 0.0 0.0 0.0 16.28999089631971 0.0 0.0 0.0 34.61538196595647" Properties=species:S:1:pos:R:3:initial_magmoms:R:1 pbc="T T T"
Si      -2.23889760      -0.66958416       0.09405005       0.00000000
Si       1.04501979      -1.48625073       1.63363925       0.00000000
Si       0.37480032       2.36582018       0.50853486       0.00000000
Si       0.21641265      -0.36116559      -2.41646655       0.00000000
Si      -2.02504248      -2.78932041      -0.94721584       0.00000000
Si       3.26171412      -1.36212093       0.78462730       0.00000000
Si       1.43681058       1.59987904      -2.98305144       0.00000000
Si      -1.41172398       2.91218678       2.05435484       0.00000000
Si      -3.55255578       0.39975629      -1.55035459       0.00000000
Si       0.97099803      -0.32764077       3.76826720       0.00000000
