10
Lattice="16.28999089631971 0.0 0.0 0.0 16.28999089631971 0.0 0.0 0.0 34.61538196595647" Properties=species:S:1:pos:R:3:initial_magmoms:R:1 pbc="T T T"
Si       1.35408283      -1.35801489       1.35962373       0.00000000
Si       1.36006839       1.35442228      -1.36117796       0.00000000
Si      -1.35861858       1.35906493       1.35803142       0.00000000
Si      -1.36642149      -1.36145371      -1.36256604       0.00000000
Si      -0.02656899       2.60694409      -2.75223940       0.00000000
Si       2.71496049      -2.71388209       0.00103846       0.00000000
Si       2.71281510       0.00143026       2.71606285       0.00000000
Si      -2.71619460      -2.71323049       0.00283846       0.00000000
Si      -0.00249237      -2.71303501       2.71640900       0.00000000
Si       2.71374363       2.71646176      -0.00218077       0.00000000
