10
Lattice="16.28999089631971 0.0 0.0 0.0 16.28999089631971 0.0 0.0 0.0 34.61538196595647" Properties=species:S:1:pos:R:3:initial_magmoms:R:1 pbc="T T T"
Si       1.35684297      -1.35685631       1.35716604       0.00000000
Si      -1.35808101      -1.35821971      -1.35771989       0.00000000
Si       1.35786924       1.35802888      -1.35827373       0.00000000
Si      -1.35829278       1.35876193       1.35775450       0.00000000
Si       0.00029322      -2.71426653      -2.71346669       0.00000000
Si      -0.00091224      -2.71376154       2.71402054       0.00000000
Si       2.71399545      -2.71407105       0.00010385       0.00000000
Si      -2.71406061       0.00093993       2.71447054       0.00000000
Si      -2.71518462      -2.71442943       0.00010385       0.00000000
Si       2.71542897       0.00064183       2.71467823       0.00000000
