10
Lattice="16.28999089631971 0.0 0.0 0.0 16.28999089631971 0.0 0.0 0.0 34.61538196595647" Properties=species:S:1:pos:R:3:initial_magmoms:R:1 pbc="T T T"
Si       1.35529542       1.34027604      -1.38949682       0.00000000
Si      -1.36019871      -1.37112930      -1.38669298       0.00000000
Si       1.29119427      -1.43594721       1.41590838       0.00000000
Si      -1.31105178       1.41270138       1.65901234       0.00000000
Si      -2.14845552      -0.57922353       2.88038216       0.00000000
Si      -0.29335032      -2.41285851       2.94241296       0.00000000
Si      -2.71409319       2.68604181      -0.00138462       0.00000000
Si       2.71046282       2.70042588      -0.00619616       0.00000000
Si       2.66588035      -0.06170652       2.76528595       0.00000000
Si       0.00109143       2.69974170      -2.74908594       0.00000000
