10
Lattice="16.28999089631971 0.0 0.0 0.0 16.28999089631971 0.0 0.0 0.0 34.61538196595647" Properties=species:S:1:pos:R:3:initial_magmoms:R:1 pbc="T T T"
Si      -0.14079447       0.01255959       2.32695112       0.00000000
Si      -0.04008969       2.02957110      -1.18575057       0.00000000
Si       1.48860531      -1.18977273      -1.37841990       0.00000000
Si      -2.14216758      -0.97655292      -0.42725790       0.00000000
Si      -0.38700153       0.96195708      -3.26966696       0.00000000
Si      -0.01702305      -1.33669224      -3.21251693       0.00000000
Si      -2.17173393       2.70909216      -0.56765797       0.00000000
Si      -1.03461048      -2.15479722       2.65358205       0.00000000
Si      -3.32174277       0.81709011      -1.31940064       0.00000000
Si      -1.90213443      -2.48040174      -2.21566261       0.00000000
