10
Lattice="16.28999089631971 0.0 0.0 0.0 16.28999089631971 0.0 0.0 0.0 34.61538196595647" Properties=species:S:1:pos:R:3:initial_magmoms:R:1 pbc="T T T"
Si       1.35625906       1.35656604      -1.35834296       0.00000000
Si      -1.35711990       1.35698958       1.35768527       0.00000000
Si       1.35751187      -1.35755973       1.35706219       0.00000000
Si      -1.35656604      -1.35769005      -1.35820450       0.00000000
Si       2.71389838      -0.00120546       2.71343208       0.00000000
Si       0.00099369      -2.71507711       2.71474746       0.00000000
Si       2.71489370       2.71494027       0.00006923       0.00000000
Si      -2.71581993       0.00070047       2.71415900       0.00000000
Si      -2.71443528      -2.71571893       0.00006923       0.00000000
Si       2.71486764      -2.71532471      -0.00017308       0.00000000
