10
Lattice="16.28999089631971 0.0 0.0 0.0 16.28999089631971 0.0 0.0 0.0 34.61538196595647" Properties=species:S:1:pos:R:3:initial_magmoms:R:1 pbc="T T T"
Si       1.79206290       0.75605148      -1.53069305       0.00000000
Si       0.29419740      -0.33796863       2.44595887       0.00000000
Si      -1.70965179       1.82397501       0.01817309       0.00000000
Si      -0.86793120      -1.98027756      -1.28194677       0.00000000
Si       0.44357670       2.04169086      -2.96771682       0.00000000
Si       1.24778142      -2.42841546       2.49469736       0.00000000
Si      -2.27097261      -0.70693713      -2.94234373       0.00000000
Si       3.29900586       1.96519302      -0.15718854       0.00000000
Si      -0.86832216       3.45883941      -1.51532381       0.00000000
Si      -3.49008363       0.84835062      -1.59753539       0.00000000
