10
Lattice="16.28999089631971 0.0 0.0 0.0 16.28999089631971 0.0 0.0 0.0 34.61538196595647" Properties=species:S:1:pos:R:3:initial_magmoms:R:1 pbc="T T T"
Si       1.35389731      -1.35725022       1.35948527       0.00000000
Si       1.37914398       1.33012737      -1.36458758       0.00000000
Si      -1.36029645       1.35959598       1.35979681       0.00000000
Si      -1.35382932      -1.35576783      -1.38060067       0.00000000
Si      -0.05545116       2.60926704      -2.64896435       0.00000000
Si       2.71239807      -2.70888039      -0.00045000       0.00000000
Si       2.71310994       0.00068418       2.71675516       0.00000000
Si       2.71465098       2.71554300       0.00173077       0.00000000
Si      -0.00237834      -2.71386513       2.71665131       0.00000000
Si      -2.71650411       2.71619460       0.00353077       0.00000000
