10
Lattice="16.28999089631971 0.0 0.0 0.0 16.28999089631971 0.0 0.0 0.0 34.61538196595647" Properties=species:S:1:pos:R:3:initial_magmoms:R:1 pbc="T T T"
Si      -1.34848620       1.28563938      -1.43702377       0.00000000
Si       1.50694296       1.20914154       1.37350451       0.00000000
Si       1.36152050      -1.44860454      -1.41646222       0.00000000
Si      -1.79206290      -0.75605148       1.53069305       0.00000000
Si      -2.66038506       2.70278793       0.01536924       0.00000000
Si      -2.65999410      -2.73632904       0.24874627       0.00000000
Si       0.00756931       2.62239678      -2.80498981       0.00000000
Si       2.74611023       2.68804548       0.00927693       0.00000000
Si      -2.70529659      -0.09479151      -2.79834366       0.00000000
Si       2.72346713      -2.78578548       0.06739619       0.00000000
