10
Lattice="16.28999089631971 0.0 0.0 0.0 16.28999089631971 0.0 0.0 0.0 34.61538196595647" Properties=species:S:1:pos:R:3:initial_magmoms:R:1 pbc="T T T"
Si      -1.40652910      -1.42495146       1.28762370       0.00000000
Si       1.67049063       0.94905540       1.42151607       0.00000000
Si      -1.36194663       1.33718094      -1.48385841       0.00000000
Si       1.33765335      -1.37878560      -1.49621611       0.00000000
Si       3.09351987      -1.20901122       1.65316234       0.00000000
Si       2.71933857       2.57557932      -0.00546923       0.00000000
Si      -1.01586069      -0.45142848       3.63562098       0.00000000
Si       2.56313376      -2.86296750      -0.11260390       0.00000000
Si      -2.72346713       2.78578548      -0.06739619       0.00000000
Si      -0.00236205       2.69348634      -2.86449369       0.00000000
