10
Lattice="16.28999089631971 0.0 0.0 0.0 16.28999089631971 0.0 0.0 0.0 34.61538196595647" Properties=species:S:1:pos:R:3:initial_magmoms:R:1 pbc="T T T"
Si      -1.41406974      -1.13474511       1.38506051       0.00000000
Si       0.66188292      -1.82482209      -1.32185837       0.00000000
Si       1.28459423       1.65166983       1.18070157       0.00000000
Si      -1.80506232       0.64564342      -1.60255466       0.00000000
Si      -0.23045463      -0.43398189      -3.13996309       0.00000000
Si       0.02052540      -2.41388478       2.66943729       0.00000000
Si      -2.68275123      -2.54462832      -0.05881161       0.00000000
Si      -2.54278755       2.68886717      -0.07528854       0.00000000
Si       2.69854343       0.31550580       2.64958535       0.00000000
Si      -2.72534958       0.32395923       2.67215113       0.00000000
