10
Lattice="16.28999089631971 0.0 0.0 0.0 16.28999089631971 0.0 0.0 0.0 34.61538196595647" Properties=species:S:1:pos:R:3:initial_magmoms:R:1 pbc="T T T"
Si      -1.48023972      -1.20896235       1.33355630       0.00000000
Si      -0.97720452       1.56533868      -1.48520841       0.00000000
Si       1.26868149       1.40988321       1.44387212       0.00000000
Si       1.63769886      -0.90893313      -1.51629304       0.00000000
Si       0.16891101      -0.35577360      -3.24810157       0.00000000
Si       3.34463415       0.71980623      -1.26304676       0.00000000
Si       0.87768891       3.19027174      -1.54374305       0.00000000
Si       2.68275123       2.54462832       0.05881161       0.00000000
Si      -0.02969667      -2.55515166       2.71223581       0.00000000
Si      -2.66813910       2.64585438      -0.16110008       0.00000000
