10
Lattice="16.28999089631971 0.0 0.0 0.0 16.28999089631971 0.0 0.0 0.0 34.61538196595647" Properties=species:S:1:pos:R:3:initial_magmoms:R:1 pbc="T T T"
Si       0.79093814       0.20281050       2.27499340       0.00000000
Si       2.11907813       0.41446647      -1.14071593       0.00000000
Si      -2.42904818       0.27258057       0.12077314       0.00000000
Si      -0.27088478      -2.36793069      -0.79577346       0.00000000
Si      -1.04768158       3.34925658      -0.34508094       0.00000000
Si       1.14887831      -2.09104956       2.72160131       0.00000000
Si       2.39907065       1.96377579       2.04085483       0.00000000
Si      -2.10587087      -3.02904405       0.79667346       0.00000000
Si       2.85295892      -1.66164516      -1.98069326       0.00000000
Si       1.79627549       1.04104503      -3.37448240       0.00000000
