10
Lattice="16.290000149 0.0 0.0 0.0 16.290000149 0.0 0.0 0.0 29.1751946751" Properties=species:S:1:pos:R:3:initial_magmoms:R:1 pbc="T T T"
Si       1.22329756      -1.53064099       1.24321340       0.00000000
Si      -1.38533419      -1.35384562      -1.29324885       0.00000000
Si      -1.05797035       1.46520406       1.47874474       0.00000000
Si       1.37603260       1.31918050      -1.35606305       0.00000000
Si       0.75663793       2.22003380       2.86252423       0.00000000
Si      -2.37221498       0.10686240       2.86272845       0.00000000
Si      -0.01912446       2.60188769      -2.71583135       0.00000000
Si      -0.02353905      -2.70316262      -2.62404618       0.00000000
Si      -2.50473413       2.81567766       0.19436515       0.00000000
Si      -2.74149300       0.00342090      -2.59630057       0.00000000
