10
Lattice="16.290000149 0.0 0.0 0.0 16.290000149 0.0 0.0 0.0 29.1751946751" Properties=species:S:1:pos:R:3:initial_magmoms:R:1 pbc="T T T"
Si      -1.38449526       1.45116534      -1.15204091       0.00000000
Si       1.52735041      -1.26385966      -1.21468006       0.00000000
Si       0.84626551       1.66342404       1.39407833       0.00000000
Si      -0.91706185      -1.73683982       1.27443085       0.00000000
H        0.23775255       2.96986251       0.95090712       0.00000000
Si       2.56101608      -2.08922510       0.73871593       0.00000000
Si       0.11344356      -2.65877237      -2.51268447       0.00000000
Si      -2.61491389       0.08889779      -2.59723418       0.00000000
Si       0.09016515       1.07927604       3.54691594       0.00000000
Si       0.73433692      -3.39011193       1.37070900       0.00000000
