10
Lattice="16.290000149 0.0 0.0 0.0 16.290000149 0.0 0.0 0.0 29.1751946751" Properties=species:S:1:pos:R:3:initial_magmoms:R:1 pbc="T T T"
Si       1.34692237      -1.34923555      -1.36583674       0.00000000
Si      -1.35337321      -1.37484343       1.34378029       0.00000000
Si      -1.35567010       1.32928030      -1.38935195       0.00000000
Si       1.36495540       1.34019460       1.37286796       0.00000000
Si      -2.72613152      -0.01466100       2.66445383       0.00000000
Si      -0.01772352       2.68418477       2.70987961       0.00000000
Si       2.68348430      -2.72433962      -0.01245781       0.00000000
Si      -2.73386927       2.67667508      -0.06672367       0.00000000
Si      -0.01128897      -2.71508690      -2.69750932       0.00000000
Si       2.70943427       2.71153568       0.00945276       0.00000000
