10
Lattice="16.290000149 0.0 0.0 0.0 16.290000149 0.0 0.0 0.0 29.1751946751" Properties=species:S:1:pos:R:3:initial_magmoms:R:1 pbc="T T T"
Si       2.26777490      -0.49032900       0.10228823       0.00000000
Si      -0.22463910       0.75292544       2.20722018       0.00000000
Si      -0.59321665       1.73626315      -1.51445518       0.00000000
Si      -1.53021745      -1.83804959      -0.42015198       0.00000000
H       -1.07852833       2.01348637       2.20654915       0.00000000
Si       2.53397468      -1.31082373      -2.05095784       0.00000000
Si      -1.10205109      -1.17866296       3.22806024       0.00000000
Si      -2.67227678      -1.95897026       1.64148398       0.00000000
Si      -3.06398613      -0.84448990      -1.92325801       0.00000000
Si      -1.77942188       0.59248083      -3.21078852       0.00000000
