10
Lattice="16.290000149 0.0 0.0 0.0 16.290000149 0.0 0.0 0.0 29.1751946751" Properties=species:S:1:pos:R:3:initial_magmoms:R:1 pbc="T T T"
Si       1.28161576       1.28286504       1.51887522       0.00000000
Si      -1.34025976      -1.35990241       1.40911814       0.00000000
Si       1.47422872      -1.30365304      -1.34929440       0.00000000
Si      -1.35961228       1.39218072      -1.38786401       0.00000000
Si      -0.01080027      -2.55571874      -2.72055773       0.00000000
Si      -2.61755867       2.73660909       0.09064179       0.00000000
Si       2.32857407       2.37006780      -1.85840155       0.00000000
Si       2.68833872      -2.70931715       0.10772299       0.00000000
Si       2.27732573       3.05957463       0.36638501       0.00000000
Si      -2.77327479      -0.07711377      -2.65272540       0.00000000
