10
Lattice="16.290000149 0.0 0.0 0.0 16.290000149 0.0 0.0 0.0 29.1751946751" Properties=species:S:1:pos:R:3:initial_magmoms:R:1 pbc="T T T"
Si      -0.67052899       0.47203533      -2.11376036       0.00000000
Si      -1.90584857      -0.79651585       1.12296783       0.00000000
Si       0.85468744       1.93422575       1.04789714       0.00000000
Si       1.69657094      -1.68138866      -0.16822301       0.00000000
H       -1.10682406      -2.65870721      -1.01187161       0.00000000
Si       2.17059365       0.66362203       2.51118778       0.00000000
Si      -0.65234935      -2.16476183       2.52879209       0.00000000
Si       3.41493789      -0.73997326       1.13162703       0.00000000
Si       0.82459981      -3.39729419       1.21999869       0.00000000
Si      -2.37167741       2.06024519      -2.13736309       0.00000000
