10
Lattice="16.290000149 0.0 0.0 0.0 16.290000149 0.0 0.0 0.0 29.1751946751" Properties=species:S:1:pos:R:3:initial_magmoms:R:1 pbc="T T T"
Si       0.83411317      -1.84419092       1.13205590       0.00000000
Si      -1.71818777       0.75500893       1.38264165       0.00000000
Si      -1.07662240      -0.09089820      -2.09857175       0.00000000
Si       1.80538814       1.58788405       0.11760521       0.00000000
H        2.35680464       1.84948517      -1.26351933       0.00000000
H       -1.16691787      -3.01878138      -1.05727988       0.00000000
Si       2.54472608      -2.26733996      -0.40536015       0.00000000
H        1.66319273       0.92989837      -2.87754945       0.00000000
Si      -0.36007416       2.09885249       2.72505071       0.00000000
Si      -0.62074675       2.11478411      -2.71262208       0.00000000
