10
Lattice="16.290000149 0.0 0.0 0.0 16.290000149 0.0 0.0 0.0 29.1751946751" Properties=species:S:1:pos:R:3:initial_magmoms:R:1 pbc="T T T"
Si       1.77665258       1.00274725       1.14763546       0.00000000
Si       1.34006591      -1.30121263      -1.42567506       0.00000000
Si      -1.23460282       1.49403736      -1.35591717       0.00000000
Si      -1.29929041      -1.29187846       1.50234747       0.00000000
H       -3.15345081      -0.79886161      -1.58316276       0.00000000
Si      -2.28753956       0.47552139       2.77844131       0.00000000
Si      -2.50686812       0.02985957      -2.65800611       0.00000000
Si       3.42805134      -0.65052487       1.24391360       0.00000000
Si       2.75851605      -2.52589484      -0.05111494       0.00000000
Si       2.69371442       2.73958707      -0.12679540       0.00000000
