10
Lattice="16.290000149 0.0 0.0 0.0 16.290000149 0.0 0.0 0.0 29.1751946751" Properties=species:S:1:pos:R:3:initial_magmoms:R:1 pbc="T T T"
Si       1.33092559       1.32556032       1.34543744       0.00000000
Si      -1.41333670       1.32956114      -1.28053722       0.00000000
Si       1.25473726      -1.20985603      -1.56850515       0.00000000
Si      -1.44886519      -1.44035953       1.22456461       0.00000000
Si      -2.45135180      -0.50342388      -2.26647208       0.00000000
Si      -0.69084262      -2.07175994      -2.60930950       0.00000000
Si       2.63146931       2.61593195      -0.12622940       0.00000000
Si       2.65153424      -0.10782123       2.62383612       0.00000000
Si      -0.10399536       2.65732484       2.63571043       0.00000000
Si       2.55089999      -2.74491161      -0.25566223       0.00000000
