10
Lattice="16.290000149 0.0 0.0 0.0 16.290000149 0.0 0.0 0.0 29.1751946751" Properties=species:S:1:pos:R:3:initial_magmoms:R:1 pbc="T T T"
Si       1.34313511       1.21501784       1.48408380       0.00000000
Si       1.17901010      -1.59802735      -1.27297209       0.00000000
Si      -1.47214507      -1.30238014       1.38557668       0.00000000
Si      -0.25761153       1.82169980      -1.57858226       0.00000000
Si       2.52465534      -0.18983829      -2.60837910       0.00000000
Si       0.71008779       0.97721479      -3.54303564       0.00000000
Si       2.68037145       2.62388457       0.13498808       0.00000000
Si      -0.09541302       2.52340785       2.82785242       0.00000000
Si       2.53260486      -2.83926020       0.18170340       0.00000000
Si       2.62389402      -0.15802392       2.87065243       0.00000000
