10
Lattice="16.28999089631971 0.0 0.0 0.0 16.28999089631971 0.0 0.0 0.0 34.56409401068381" Properties=species:S:1:pos:R:3:initial_magmoms:R:1 pbc="T T T"
Si      -1.35514881      -1.33066869      -1.38401623       0.00000000
Si      -1.36699164       1.35978331       1.38698874       0.00000000
Si       1.36443411       1.37648056      -1.38159674       0.00000000
Si       1.30836393      -1.43353533       1.54021145       0.00000000
Si       0.36927801       2.30101952       2.70077069       0.00000000
Si       2.19188466       0.57159166       2.80111031       0.00000000
Si       2.71086777      -2.68400460      -0.00639436       0.00000000
Si      -2.70449838      -2.69894253       0.00428595       0.00000000
Si       0.00192222      -2.69161203      -2.74221306       0.00000000
Si      -2.70935280       2.73599509      -0.01956329       0.00000000
