10
Lattice="16.28999089631971 0.0 0.0 0.0 16.28999089631971 0.0 0.0 0.0 34.56409401068381" Properties=species:S:1:pos:R:3:initial_magmoms:R:1 pbc="T T T"
Si       1.11136896       1.41085344      -1.45134712       0.00000000
Si       0.59720769      -1.74467172       1.40727787       0.00000000
Si      -1.16804187      -1.45114221      -1.47453964       0.00000000
Si      -0.93792933       1.74670600       1.39680495       0.00000000
Si      -3.24465849      -0.45157152      -0.98711651       0.00000000
Si       1.50156333      -0.42136986       3.04679203       0.00000000
Si      -3.21103593       1.23864371       0.75726516       0.00000000
Si       2.80534977       1.23812569       1.97333436       0.00000000
Si      -0.46006218       0.75864745       3.55567947       0.00000000
Si       3.13474986       1.87771018      -0.33267959       0.00000000
