10
Lattice="16.28999089631971 0.0 0.0 0.0 16.28999089631971 0.0 0.0 0.0 34.56409401068381" Properties=species:S:1:pos:R:3:initial_magmoms:R:1 pbc="T T T"
Si       1.35772263       1.35661491      -1.35805858       0.00000000
Si      -1.35866745       1.35624024       1.36020155       0.00000000
Si      -1.35786924      -1.35943308      -1.35785119       0.00000000
Si       1.36177884      -1.36334268       1.36075458       0.00000000
Si      -2.71437012       2.71410948      -0.00062215       0.00000000
Si       0.00017919       2.71334385      -2.71549500       0.00000000
Si       2.73028545       0.00733050       2.69883510       0.00000000
Si       2.71508688      -0.00120546      -2.71549500       0.00000000
Si      -2.71542897      -0.00158013      -2.71518392       0.00000000
Si       2.71766070       2.71412577      -0.00120974       0.00000000
