10
Lattice="16.28999089631971 0.0 0.0 0.0 16.28999089631971 0.0 0.0 0.0 34.56409401068381" Properties=species:S:1:pos:R:3:initial_magmoms:R:1 pbc="T T T"
Si       1.35679410       1.35718506      -1.35698709       0.00000000
Si      -1.35806472       1.35549090       1.35833509       0.00000000
Si      -1.35870003      -1.35801585      -1.35702165       0.00000000
Si       1.35570267      -1.35786924       1.36082371       0.00000000
Si       0.01565469       2.70938538       2.71027582       0.00000000
Si      -2.71426586      -0.00689067       2.71058690       0.00000000
Si       2.71437012      -2.71410948       0.00062215       0.00000000
Si      -0.00097740       2.71474479      -2.71466546       0.00000000
Si       2.71454931      -0.00076563      -2.71487285       0.00000000
Si      -2.71545829      -0.00091224      -2.71452720       0.00000000
