10
Lattice="16.28999089631971 0.0 0.0 0.0 16.28999089631971 0.0 0.0 0.0 34.56409401068381" Properties=species:S:1:pos:R:3:initial_magmoms:R:1 pbc="T T T"
Si       1.35329175       1.35480672      -1.37506412       0.00000000
Si      -1.36296801      -1.35876519      -1.37499499       0.00000000
Si      -1.25196795       1.51382970       1.38771459       0.00000000
Si       1.39935987      -1.42255683       1.36151499       0.00000000
Si      -2.71021617       0.09097965       2.63603210       0.00000000
Si      -2.70301599       2.70848943      -0.02554288       0.00000000
Si       2.70402597       2.72813517      -0.00041477       0.00000000
Si       2.72598489      -2.70767493      -0.03636145       0.00000000
Si      -2.71630863      -2.71883358      -0.01240852       0.00000000
Si       2.71336014      -0.00087966      -2.73640629       0.00000000
