10
Lattice="16.28999089631971 0.0 0.0 0.0 16.28999089631971 0.0 0.0 0.0 34.56409401068381" Properties=species:S:1:pos:R:3:initial_magmoms:R:1 pbc="T T T"
Si      -1.66506606       1.15012287       1.21060807       0.00000000
Si       1.83055617      -0.52714440       1.42704855       0.00000000
Si       1.45824822       1.42285005      -1.24831752       0.00000000
Si      -1.37269314      -1.47460338      -1.28941425       0.00000000
Si       0.00720018       2.61750978      -2.66157498       0.00000000
Si       2.71021617      -0.09097965      -2.63603210       0.00000000
Si      -2.72272037      -0.09876627      -2.66126391       0.00000000
Si      -2.73978578       2.68293042      -0.10922260       0.00000000
Si      -0.00609246      -2.80981323      -2.64844062       0.00000000
Si       1.22417721      -0.16858521       3.68975366       0.00000000
