10
Lattice="16.28999089631971 0.0 0.0 0.0 16.28999089631971 0.0 0.0 0.0 34.56409401068381" Properties=species:S:1:pos:R:3:initial_magmoms:R:1 pbc="T T T"
Si       0.70319043      -0.16773813       2.20349679       0.00000000
Si       1.76094900      -0.95750991      -1.18433934       0.00000000
Si      -0.93579534       1.95476742      -0.95393496       0.00000000
Si      -1.93759776      -1.36746405       0.11869317       0.00000000
Si      -2.30990571       0.58253040      -2.55667290       0.00000000
Si       0.34142211      -2.35385613      -2.58287250       0.00000000
Si      -2.54397672      -1.00890486       2.38139828       0.00000000
Si       3.47812677      -1.12922280       0.53159606       0.00000000
Si       0.06460614       2.12322231       3.25607773       0.00000000
Si       3.07954305       0.23501583       2.46580384       0.00000000
