10
Lattice="16.28999089631971 0.0 0.0 0.0 16.28999089631971 0.0 0.0 0.0 34.56409401068381" Properties=species:S:1:pos:R:3:initial_magmoms:R:1 pbc="T T T"
Si       1.10045466      -0.54799560       2.01643581       0.00000000
Si      -1.91936925       1.29912750       0.47491092       0.00000000
Si       0.60637896      -0.35855919      -2.26270511       0.00000000
Si       0.70719777      -2.54845647      -1.56464828       0.00000000
Si       3.24716715       0.84116673      -0.17790149       0.00000000
Si       3.19684734      -1.22041422       0.98573395       0.00000000
Si       2.54397672       1.00890486      -2.38139828       0.00000000
Si       0.52344657       1.32209640       3.36678659       0.00000000
Si      -2.83516047      -2.15976078       0.98476615       0.00000000
Si      -1.32960609       2.53987164       2.38174392       0.00000000
