10
Lattice="16.28999089631971 0.0 0.0 0.0 16.28999089631971 0.0 0.0 0.0 34.56409401068381" Properties=species:S:1:pos:R:3:initial_magmoms:R:1 pbc="T T T"
Si       1.35128808      -1.35814617       1.35812770       0.00000000
Si      -1.36018242       1.35868374       1.35764381       0.00000000
Si       1.35485559       1.33827237      -1.38640115       0.00000000
Si      -1.33991766      -1.37099898      -1.37835808       0.00000000
Si      -0.16895988       2.49258177      -2.79680016       0.00000000
Si       2.71117728       0.00102627       2.71456177       0.00000000
Si       2.71156824       2.71632492      -0.00767323       0.00000000
Si       2.71448415      -2.71373481       0.00006913       0.00000000
Si      -0.00361638      -2.71368594       2.71504567       0.00000000
Si      -0.00371412       2.71637379       2.71556413       0.00000000
