10
Lattice="16.28999089631971 0.0 0.0 0.0 16.28999089631971 0.0 0.0 0.0 34.56409401068381" Properties=species:S:1:pos:R:3:initial_magmoms:R:1 pbc="T T T"
Si      -1.35733167       1.35415512       1.36196432       0.00000000
Si       1.35979146      -1.36169739       1.36151499       0.00000000
Si       1.36291914       1.34765541      -1.37712414       0.00000000
Si      -1.36435266      -1.37161800      -1.37337394       0.00000000
Si       2.55101400      -0.22779936      -2.79292898       0.00000000
Si      -2.71515856       2.70971118       0.00324903       0.00000000
Si      -2.71315652      -2.71552671       0.00397487       0.00000000
Si       2.72246625       2.70666495       0.00463159       0.00000000
Si       0.00097740       2.71104696       2.71888228       0.00000000
Si      -2.71440107      -0.00346977       2.71877859       0.00000000
