10
Lattice="16.28999089631971 0.0 0.0 0.0 16.28999089631971 0.0 0.0 0.0 34.56409401068381" Properties=species:S:1:pos:R:3:initial_magmoms:R:1 pbc="T T T"
Si       0.98593596       1.05871968       1.84005514       0.00000000
Si      -1.91347227       1.46451987      -0.10932629       0.00000000
Si       1.95401808       0.11864007      -1.41533131       0.00000000
Si      -0.50225328      -2.26878975       0.69380545       0.00000000
Si      -0.97033014      -1.70742006      -2.84023688       0.00000000
Si       1.06367184      -0.60219243      -3.50431719       0.00000000
Si       1.22319981       3.40216650       1.18973134       0.00000000
Si      -2.07360297       2.45039067       2.11290425       0.00000000
Si      -0.57173013       1.34205165       3.57216655       0.00000000
Si      -1.09201644      -3.50953389      -1.21302756       0.00000000
