10
Lattice="16.28999089631971 0.0 0.0 0.0 16.28999089631971 0.0 0.0 0.0 34.56409401068381" Properties=species:S:1:pos:R:3:initial_magmoms:R:1 pbc="T T T"
Si       1.35659862       1.35641943      -1.35698709       0.00000000
Si      -1.35850455       1.35459495       1.35833509       0.00000000
Si      -1.35785295      -1.35868374      -1.35695253       0.00000000
Si       1.35368271      -1.36076886       1.36078914       0.00000000
Si       2.71352304       2.71394658       0.00093323       0.00000000
Si       2.71433754      -0.00120546      -2.71418156       0.00000000
Si      -0.00094482       2.71384884      -2.71473459       0.00000000
Si       2.71534752      -2.71471221       0.00072585       0.00000000
Si      -0.00109143      -2.71575477      -2.71449264       0.00000000
Si      -2.71463402       2.71595025       0.00031108       0.00000000
