10
Lattice="16.28999089631971 0.0 0.0 0.0 16.28999089631971 0.0 0.0 0.0 34.56409401068381" Properties=species:S:1:pos:R:3:initial_magmoms:R:1 pbc="T T T"
Si      -1.28990736      -1.53779229       1.29535928       0.00000000
Si       1.16465355      -1.48740732      -1.56357679       0.00000000
Si      -1.55644434       1.20800124      -1.57211413       0.00000000
Si       1.55616741       1.22378625       1.75143275       0.00000000
Si      -1.60977780       1.65433095       2.50140488       0.00000000
Si       2.45641797       2.47340844      -0.03618863       0.00000000
Si       2.64153753      -2.74760172      -0.03795140       0.00000000
Si      -3.01496949       2.43887364      -0.11554783       0.00000000
Si       2.50813872      -0.14537196      -2.96048543       0.00000000
Si      -2.75716395      -2.78326053      -0.21965494       0.00000000
