10
Lattice="16.28999089631971 0.0 0.0 0.0 16.28999089631971 0.0 0.0 0.0 34.56409401068381" Properties=species:S:1:pos:R:3:initial_magmoms:R:1 pbc="T T T"
Si       0.90025056       1.24962219      -1.78762138       0.00000000
Si       1.74555495      -1.25257068       1.30707651       0.00000000
Si      -1.31698134       1.66569227       1.37029427       0.00000000
Si      -1.55616741      -1.22378625      -1.75143275       0.00000000
Si      -3.16594521       0.43054470       0.74997213       0.00000000
Si       1.18641699       2.93051466       2.00395816       0.00000000
Si       1.78377129       3.25474919      -0.52672252       0.00000000
Si       2.56137444      -2.73075786      -0.41158946       0.00000000
Si      -0.41865300       0.26173143       3.76081748       0.00000000
Si      -2.84607477      -2.76157854      -0.45607348       0.00000000
