10
Lattice="16.28999089631971 0.0 0.0 0.0 16.28999089631971 0.0 0.0 0.0 34.56409401068381" Properties=species:S:1:pos:R:3:initial_magmoms:R:1 pbc="T T T"
Si      -0.98593596      -1.05871968      -1.84005514       0.00000000
Si      -1.55766609       0.28333197       1.73211141       0.00000000
Si       1.74588075      -1.27798308       0.93243609       0.00000000
Si       0.23726385       2.34344682      -0.65032379       0.00000000
Si      -3.05953893       1.39167099       0.27284911       0.00000000
Si      -2.89940823       0.40580019      -1.94938143       0.00000000
Si      -0.02088378       1.29546225       3.27128594       0.00000000
Si       0.96808212      -0.94007961      -3.25538645       0.00000000
Si       3.34114416       0.44584101       1.15485615       0.00000000
Si       2.00251341       2.04991731       2.23149372       0.00000000
