10
Lattice="16.28999089631971 0.0 0.0 0.0 16.28999089631971 0.0 0.0 0.0 34.56409401068381" Properties=species:S:1:pos:R:3:initial_magmoms:R:1 pbc="T T T"
Si      -1.76870944      -1.51148394      -0.13535307       0.00000000
Si      -0.18142813       1.02379392      -2.09029932       0.00000000
Si      -0.50789602       1.49198481       1.79335902       0.00000000
Si       2.18747085      -1.12550868      -0.25217977       0.00000000
Si       1.92562539      -1.97742681       1.95180092       0.00000000
Si      -0.92141767      -2.64262733      -2.03506586       0.00000000
Si      -0.08865658      -0.89722062      -3.45426836       0.00000000
Si       1.47459927       2.75183712       1.88941269       0.00000000
Si       2.57750232       2.78106138      -0.19355903       0.00000000
Si       1.22656611       2.91885849      -2.14380456       0.00000000
