10
Lattice="16.28999089631971 0.0 0.0 0.0 16.28999089631971 0.0 0.0 0.0 34.56409401068381" Properties=species:S:1:pos:R:3:initial_magmoms:R:1 pbc="T T T"
Si       0.94154571       0.10516824       2.15991144       0.00000000
Si      -0.54965718       2.17783683      -0.79065409       0.00000000
Si       1.85139108      -0.11111409      -1.59305998       0.00000000
Si      -1.85919399      -1.58009742       0.41065623       0.00000000
Si      -3.46151097      -0.27447021      -0.69601755       0.00000000
Si       1.21037958       3.39425675       0.20600212       0.00000000
Si       0.81503757      -2.15428734       2.83761001       0.00000000
Si      -1.00032003       1.92777719      -3.08678270       0.00000000
Si       0.96130548       0.74775987      -3.59567015       0.00000000
Si      -0.12852810       1.89053499       3.29240461       0.00000000
