10
Lattice="16.28999089631971 0.0 0.0 0.0 16.28999089631971 0.0 0.0 0.0 34.56409401068381" Properties=species:S:1:pos:R:3:initial_magmoms:R:1 pbc="T T T"
Si       1.84616199       1.44560948      -0.22432110       0.00000000
Si      -0.61502895      -0.75663792       2.16644406       0.00000000
Si       0.88003467      -1.81216476      -1.33293047       0.00000000
Si      -1.76831208       1.37301309      -0.91674398       0.00000000
Si       2.29682484       1.69566912       2.07180752       0.00000000
Si       1.36829484       2.43366803      -2.38319561       0.00000000
Si      -2.45873115      -2.18818683       1.65845529       0.00000000
Si      -0.90481176       1.92560573      -3.02273540       0.00000000
Si       3.80778750       0.26559216      -0.73320854       0.00000000
Si      -0.95363289       1.19954577       3.57565752       0.00000000
