10
Lattice="16.28999089631971 0.0 0.0 0.0 16.28999089631971 0.0 0.0 0.0 34.56409401068381" Properties=species:S:1:pos:R:3:initial_magmoms:R:1 pbc="T T T"
Si      -0.93989553      -1.72791777       1.32767469       0.00000000
Si       1.82104281       0.99893538       1.28670930       0.00000000
Si       0.99619866      -1.70596210      -1.57076613       0.00000000
Si      -1.91075021       1.71932805      -0.18128877       0.00000000
Si      -0.54128412       0.21357819      -3.17848130       0.00000000
Si       0.40935141       2.29283379       2.76187109       0.00000000
Si      -2.32092494      -0.43279272       2.76805807       0.00000000
Si      -2.41995185      -2.94594224      -0.12747245       0.00000000
Si      -1.05408517       3.50884971       1.33546198       0.00000000
Si      -3.63971447       0.93846690       1.34890051       0.00000000
