10
Lattice="16.28999089631971 0.0 0.0 0.0 16.28999089631971 0.0 0.0 0.0 34.56409401068381" Properties=species:S:1:pos:R:3:initial_magmoms:R:1 pbc="T T T"
Si       0.58728708       2.24547876       0.26797557       0.00000000
Si      -2.02338090      -0.46685674      -1.11866753       0.00000000
Si      -0.32940009      -0.63958450       2.30601395       0.00000000
Si       1.64069622      -1.03431726      -1.45632435       0.00000000
Si      -1.23473313       3.01492062       1.59530665       0.00000000
Si      -1.35146727      -1.72559644      -2.93100225       0.00000000
Si      -3.13474986      -1.87771018       0.33267959       0.00000000
Si       2.69522937       2.11724388       1.44163460       0.00000000
Si      -0.99831636       1.43241228       3.30802759       0.00000000
Si       0.65195838       3.19795506      -1.90268531       0.00000000
