10
Lattice="16.28999089631971 0.0 0.0 0.0 16.28999089631971 0.0 0.0 0.0 34.56409401068381" Properties=species:S:1:pos:R:3:initial_magmoms:R:1 pbc="T T T"
Si      -0.38753910       0.55526094       2.20169945       0.00000000
Si      -0.23641677       1.58250834      -1.71272094       0.00000000
Si       0.66891627      -2.07199678      -1.00201365       0.00000000
Si       1.86180039       1.31473332       1.40682854       0.00000000
Si      -2.47769271       0.72733221      -2.03859140       0.00000000
Si       1.58560344       0.81306648      -3.04005202       0.00000000
Si       3.50186130      -0.14388957       0.36720914       0.00000000
Si       2.70659979      -2.30669332       0.06110935       0.00000000
Si      -2.59649568      -2.55147501       0.58033146       0.00000000
Si       0.99831636      -1.43241228      -3.30802759       0.00000000
