10
Lattice="16.28999089631971 0.0 0.0 0.0 16.28999089631971 0.0 0.0 0.0 34.56409401068381" Properties=species:S:1:pos:R:3:initial_magmoms:R:1 pbc="T T T"
Si       0.66891627      -2.19928032       0.39368525       0.00000000
Si       2.07210429       1.07220780      -0.52544365       0.00000000
Si      -0.39858372       1.36423863       1.93420778       0.00000000
Si      -1.71717777       0.17171289      -1.71593541       0.00000000
Si      -2.77493634       0.96148467       1.67190073       0.00000000
Si       0.91772973       2.87122653      -1.65095487       0.00000000
Si      -0.46333647       1.61614719      -3.10033184       0.00000000
Si      -3.47812677       1.12922280      -0.53159606       0.00000000
Si       1.27770615      -2.13144876       2.73889490       0.00000000
Si       1.53503928      -3.02604669      -1.69509325       0.00000000
