10
Lattice="16.28999089631971 0.0 0.0 0.0 16.28999089631971 0.0 0.0 0.0 34.56409401068381" Properties=species:S:1:pos:R:3:initial_magmoms:R:1 pbc="T T T"
Si      -0.49901157      -2.24161803      -0.26023321       0.00000000
Si       2.19100500       0.65032938       0.58752080       0.00000000
Si      -0.22608891       0.55465821      -2.29267220       0.00000000
Si      -1.36251189       1.06326459       1.66360534       0.00000000
Si      -0.87480558       2.79129150      -1.96099497       0.00000000
Si      -2.65276134      -1.90967670      -1.39134382       0.00000000
Si       0.00993690       2.94402654       2.07025213       0.00000000
Si       1.45020096      -2.94102918      -1.48798508       0.00000000
Si      -2.60244153       0.15190425      -2.55497926       0.00000000
Si      -0.56368287      -3.19409433       1.91042767       0.00000000
