10
Lattice="16.28999089631971 0.0 0.0 0.0 16.28999089631971 0.0 0.0 0.0 34.56409401068381" Properties=species:S:1:pos:R:3:initial_magmoms:R:1 pbc="T T T"
Si      -0.64871667       2.23663329       0.33167723       0.00000000
Si       0.22608891      -0.55465821       2.29267220       0.00000000
Si       0.39858372      -1.36423863      -1.93420778       0.00000000
Si      -2.37635262      -0.40275396      -0.26230706       0.00000000
Si      -0.27292266      -2.79627624       2.03243899       0.00000000
Si       2.47068801      -0.29203083      -2.45965143       0.00000000
Si      -2.42667243      -2.46433491       0.90132838       0.00000000
Si      -3.01493691       1.88820648       0.79027389       0.00000000
Si       2.41709391       0.09567117       2.88019300       0.00000000
Si       0.33309792       3.14978553      -2.05808556       0.00000000
