10
Lattice="16.28999089631971 0.0 0.0 0.0 16.28999089631971 0.0 0.0 0.0 34.56409401068381" Properties=species:S:1:pos:R:3:initial_magmoms:R:1 pbc="T T T"
Si      -1.35485559       1.35749457      -1.35826596       0.00000000
Si       1.35848826      -1.35843939      -1.35750555       0.00000000
Si       1.35571896       1.36477620       1.35598473       0.00000000
Si      -1.36234899      -1.34330598       1.37765643       0.00000000
Si       2.65771350      -0.06012639       2.69347766       0.00000000
Si       0.00635310      -2.65321746       2.75372291       0.00000000
Si      -2.71324611       2.71140534       0.00114062       0.00000000
Si      -2.71314837      -0.00016290      -2.71528761       0.00000000
Si       0.00167787       2.71404432      -2.71521849       0.00000000
Si      -2.71308321      -2.71663443       0.00300708       0.00000000
