10
Lattice="16.28999089631971 0.0 0.0 0.0 16.28999089631971 0.0 0.0 0.0 34.56409401068381" Properties=species:S:1:pos:R:3:initial_magmoms:R:1 pbc="T T T"
Si      -0.77779863       0.98012043      -1.97406020       0.00000000
Si      -1.85533326      -0.69180372       1.30323989       0.00000000
Si       1.07276166       1.93692987       0.97429323       0.00000000
Si       1.04075181      -2.01922695      -0.86458673       0.00000000
Si       2.04077862      -1.20361923      -2.80760836       0.00000000
Si       2.01723957       3.13699788      -0.85642960       0.00000000
Si      -2.22250986      -0.48096225      -3.08163265       0.00000000
Si      -0.94179006      -2.36569896       2.87739331       0.00000000
Si       0.80426988       0.62696952      -3.71640259       0.00000000
Si      -1.90296522       2.98339947      -1.67594473       0.00000000
