10
Lattice="16.28999089631971 0.0 0.0 0.0 16.28999089631971 0.0 0.0 0.0 34.56409401068381" Properties=species:S:1:pos:R:3:initial_magmoms:R:1 pbc="T T T"
Si       1.00002681       0.81560772      -1.94302163       0.00000000
Si      -1.56843378      -1.70908164      -0.51918755       0.00000000
Si       1.34350146      -1.42995249       1.34606483       0.00000000
Si      -1.04075181       2.01922695       0.86458673       0.00000000
Si       2.87560854       1.68746481      -0.85362991       0.00000000
Si      -0.32540904      -1.90866672       3.01851858       0.00000000
Si      -3.45242115      -0.51820119      -1.09588978       0.00000000
Si      -1.81855044       2.99934738      -1.10947347       0.00000000
Si       1.58278527      -3.46343319      -0.09926813       0.00000000
Si      -1.65117069      -3.14540352       1.39124013       0.00000000
