10
Lattice="16.28999089631971 0.0 0.0 0.0 16.28999089631971 0.0 0.0 0.0 34.56409401068381" Properties=species:S:1:pos:R:3:initial_magmoms:R:1 pbc="T T T"
Si      -0.90435564      -1.32330186      -1.63951415       0.00000000
Si      -1.96162551       1.18001732       0.50888744       0.00000000
Si       0.89008560      -0.85887396       2.00261016       0.00000000
Si       1.30378644       1.65949555      -1.07345767       0.00000000
Si      -1.50156333       0.42136986      -3.04679203       0.00000000
Si      -1.51096266       1.43007696       2.80501605       0.00000000
Si       2.88119601       0.45827291       2.10184373       0.00000000
Si       3.34146996       1.42479900      -0.01033467       0.00000000
Si      -2.92775283      -2.07775692      -0.59972193       0.00000000
Si      -2.43949266       2.16807587      -1.64998708       0.00000000
