10
Lattice="16.28999089631971 0.0 0.0 0.0 16.28999089631971 0.0 0.0 0.0 34.56409401068381" Properties=species:S:1:pos:R:3:initial_magmoms:R:1 pbc="T T T"
Si       1.37180275       1.26008037       1.41073429       0.00000000
Si       1.38263560      -1.34459778      -1.32373641       0.00000000
Si      -1.73925072      -0.89625951       1.28602696       0.00000000
Si      -1.33126767       1.38750075      -1.35190616       0.00000000
Si       1.77027407      -0.72723447       2.72078331       0.00000000
Si      -0.24068475       2.30288472       2.77874733       0.00000000
Si      -2.66123214      -2.66261907       0.05519889       0.00000000
Si       0.02004146      -2.67938626      -2.69309745       0.00000000
Si      -2.69527824       0.03495834      -2.69254443       0.00000000
Si      -2.74502790       2.64665259      -0.01292698       0.00000000
