10
Lattice="16.28999089631971 0.0 0.0 0.0 16.28999089631971 0.0 0.0 0.0 34.56409401068381" Properties=species:S:1:pos:R:3:initial_magmoms:R:1 pbc="T T T"
Si       0.92198142       1.76635956       1.23082808       0.00000000
Si       1.33159347      -1.37962130      -1.36953386       0.00000000
Si      -1.19184156      -1.46532299       1.43752147       0.00000000
Si      -1.41058368       1.34361288      -1.37281745       0.00000000
Si      -1.55017269       0.20994943       3.18100448       0.00000000
Si       2.66123214       2.66261907      -0.05519889       0.00000000
Si      -2.70119151      -2.67957959       0.00107149       0.00000000
Si       2.58587460      -2.78914613       0.16113790       0.00000000
Si       2.68127360      -0.01676719      -2.74829634       0.00000000
Si      -0.03404610       2.69757741      -2.74774332       0.00000000
