10
Lattice="16.28999089631971 0.0 0.0 0.0 16.28999089631971 0.0 0.0 0.0 34.56409401068381" Properties=species:S:1:pos:R:3:initial_magmoms:R:1 pbc="T T T"
Si       0.66433878       1.76101416      -1.47899841       0.00000000
Si      -0.86612301       0.82676637       2.08877850       0.00000000
Si       1.67011596      -1.78189794      -0.18004447       0.00000000
Si      -1.95747156      -0.70460766      -1.37862422       0.00000000
Si      -2.18660670      -1.40427945       2.06748700       0.00000000
Si       2.07809901       0.50186232      -2.81797760       0.00000000
Si      -0.66244914      -2.20464462      -2.78369000       0.00000000
Si       2.13154650       3.00506517      -0.13652825       0.00000000
Si       3.16868193       1.41724629       1.31267590       0.00000000
Si      -1.53503928       3.02604669       1.69509325       0.00000000
