10
Lattice="16.28999089631971 0.0 0.0 0.0 16.28999089631971 0.0 0.0 0.0 34.56409401068381" Properties=species:S:1:pos:R:3:initial_magmoms:R:1 pbc="T T T"
Si      -1.35657534       1.35661491       1.35436022       0.00000000
Si      -1.35569633      -1.35809730      -1.35729817       0.00000000
Si       1.35880266       1.35726651      -1.35695253       0.00000000
Si       1.36139277      -1.35933534       1.36065089       0.00000000
Si      -2.70461471      -0.00592956       2.69880053       0.00000000
Si       0.00323682       2.70839169       2.71065602       0.00000000
Si      -2.71311809       2.71397916      -0.00031108       0.00000000
Si      -2.71311809      -0.00060273      -2.71442351       0.00000000
Si       0.00204439       2.71437012      -2.71445808       0.00000000
Si       0.00193525      -2.71493050      -2.71456177       0.00000000
