10
Lattice="16.28999089631971 0.0 0.0 0.0 16.28999089631971 0.0 0.0 0.0 34.56409401068381" Properties=species:S:1:pos:R:3:initial_magmoms:R:1 pbc="T T T"
Si       0.87664635      -1.82093434       1.29131527       0.00000000
Si      -1.73188764       1.16470405       1.20404089       0.00000000
Si      -2.03150961      -0.74995576      -1.18091750       0.00000000
Si       1.75977612       1.87266745      -0.41867510       0.00000000
Si       0.44064450       0.80645437      -3.13109390       0.00000000
Si      -0.75337992      -3.51540385       0.59522860       0.00000000
Si      -3.41607816       1.18407286      -0.88356243       0.00000000
Si       2.55338649      -2.86401562      -0.02229385       0.00000000
Si       2.40605648       2.50973677       1.81060651       0.00000000
Si      -3.07263609      -2.51371546       0.03224832       0.00000000
