10
Lattice="16.28999089631971 0.0 0.0 0.0 16.28999089631971 0.0 0.0 0.0 34.56409401068381" Properties=species:S:1:pos:R:3:initial_magmoms:R:1 pbc="T T T"
Si       1.35729909       1.35659862      -1.35802401       0.00000000
Si      -1.36102950       1.35716877       1.35463673       0.00000000
Si      -1.35809730      -1.35822762      -1.35805858       0.00000000
Si       1.35922131      -1.35910728       1.35750555       0.00000000
Si      -2.69998605       0.00786807       2.69886966       0.00000000
Si       2.72323188      -0.00656487       2.69814381       0.00000000
Si      -2.71261080       2.71466334      -0.00117518       0.00000000
Si       2.71472850       2.71334385      -0.00096780       0.00000000
Si      -0.00083079       2.71435383      -2.71504567       0.00000000
Si       2.71472850      -0.00123804      -2.71508023       0.00000000
