10
Lattice="16.28999089631971 0.0 0.0 0.0 16.28999089631971 0.0 0.0 0.0 34.56409401068381" Properties=species:S:1:pos:R:3:initial_magmoms:R:1 pbc="T T T"
Si       1.41376023      -1.25915184      -1.33897919       0.00000000
Si       1.46720772       1.24405101       1.34247016       0.00000000
Si      -1.32006015       1.46318409      -1.31129333       0.00000000
Si      -0.66433878      -1.76101416       1.47899841       0.00000000
Si      -0.12727377       2.33724033       2.64864800       0.00000000
Si      -2.62181034      -2.46562182       0.10037419       0.00000000
Si       0.04974966      -2.61169425      -2.67961745       0.00000000
Si       2.50434315      -0.34376787       2.79167431       0.00000000
Si      -2.67050115       0.10458180      -2.68248627       0.00000000
Si       2.74502790      -2.64665259       0.01292698       0.00000000
