10
Lattice="16.28999089631971 0.0 0.0 0.0 16.28999089631971 0.0 0.0 0.0 34.56409401068381" Properties=species:S:1:pos:R:3:initial_magmoms:R:1 pbc="T T T"
Si      -0.19403019      -1.32023934       1.90379136       0.00000000
Si      -0.35701164      -0.88246188      -2.16163965       0.00000000
Si       1.63002627       1.69446951       0.69608668       0.00000000
Si      -2.31925617       1.00168839      -0.56298028       0.00000000
Si       3.30676641       0.65138823      -0.61752245       0.00000000
Si      -1.27812969       2.76544809      -1.77614609       0.00000000
Si      -0.17883162       0.43860825       3.50445545       0.00000000
Si      -2.74673835       1.56874329       1.66488421       0.00000000
Si       1.84132386      -2.55420684       1.79978795       0.00000000
Si       0.75337992       3.51540385      -0.59522860       0.00000000
