10
Lattice="16.28999089631971 0.0 0.0 0.0 16.28999089631971 0.0 0.0 0.0 34.56409401068381" Properties=species:S:1:pos:R:3:initial_magmoms:R:1 pbc="T T T"
Si      -1.00805941       2.09000700      -0.28636368       0.00000000
Si       0.53784693       0.11308518       2.37884054       0.00000000
Si      -2.26215972      -1.06521939       0.23199433       0.00000000
Si      -1.51432166      -2.98376437       1.35636494       0.00000000
Si       0.91579122       3.45888828      -0.50985524       0.00000000
Si       2.14949808      -2.89499364      -0.64731671       0.00000000
Si       2.93161356      -0.15706818       2.21521402       0.00000000
Si       2.83516047       2.15976078      -0.98476615       0.00000000
Si      -0.51896682      -1.87466949       3.21473905       0.00000000
Si      -1.84595836       2.39961474      -2.37783818       0.00000000
