10
Lattice="16.28999089631971 0.0 0.0 0.0 16.28999089631971 0.0 0.0 0.0 34.56409401068381" Properties=species:S:1:pos:R:3:initial_magmoms:R:1 pbc="T T T"
Si      -2.07453150       0.76704627       0.86849248       0.00000000
Si       1.57029477       1.71743908      -0.60345485       0.00000000
Si       1.00282936      -1.35272160       1.72464556       0.00000000
Si      -0.70695342      -0.69468705      -2.24711670       0.00000000
Si      -2.51581131      -1.95054831       0.56125207       0.00000000
Si      -0.79985529      -2.83084362       1.90310008       0.00000000
Si      -1.44585153       3.08308517       1.12927871       0.00000000
Si       3.01882112      -2.16997461       0.85625678       0.00000000
Si       3.41790983       0.63930009      -1.62561938       0.00000000
Si      -2.24127594       0.25220326       3.16538150       0.00000000
