10
Lattice="16.28999089631971 0.0 0.0 0.0 16.28999089631971 0.0 0.0 0.0 34.56409401068381" Properties=species:S:1:pos:R:3:initial_magmoms:R:1 pbc="T T T"
Si       1.57255515      -1.71810630       0.34038121       0.00000000
Si       0.96257610       1.78675236       1.32639236       0.00000000
Si      -1.80605601      -1.04977647       1.26185425       0.00000000
Si       0.10461438       0.12782763      -2.52888335       0.00000000
Si       1.43788572       2.06682633      -2.11407943       0.00000000
Si       2.26660309       0.40200462       2.75441907       0.00000000
Si      -0.44329977      -2.32104807       2.73880992       0.00000000
Si       3.57313398      -0.96866856       1.36017187       0.00000000
Si       2.16246492       3.30427730      -0.15190928       0.00000000
Si      -2.68539021      -2.95471278       0.06228913       0.00000000
