10
Lattice="16.28999089631971 0.0 0.0 0.0 16.28999089631971 0.0 0.0 0.0 34.56409401068381" Properties=species:S:1:pos:R:3:initial_magmoms:R:1 pbc="T T T"
Si       0.58976316       1.24074414       1.90683300       0.00000000
Si       1.91936925      -1.29912750      -0.47491092       0.00000000
Si      -1.92385063      -1.36888128       0.22349156       0.00000000
Si       0.12168630       1.80211383      -1.62720933       0.00000000
Si      -0.96987402       0.01958058      -2.95405651       0.00000000
Si      -2.76174958      -1.05927354      -1.86798294       0.00000000
Si      -1.41532407       0.73795329       3.13126672       0.00000000
Si      -0.91579122      -3.45888828       0.50985524       0.00000000
Si      -3.12802698      -0.31908852       1.94336727       0.00000000
Si       2.44281582       0.02296890       2.89187567       0.00000000
