10
Lattice="16.28999089631971 0.0 0.0 0.0 16.28999089631971 0.0 0.0 0.0 34.56409401068381" Properties=species:S:1:pos:R:3:initial_magmoms:R:1 pbc="T T T"
Si      -1.40799424      -1.89506457       0.05350525       0.00000000
Si       1.35093622      -0.13779711       1.95024553       0.00000000
Si       1.31350180      -0.11324808      -2.03689776       0.00000000
Si      -1.13233191       2.13658011       0.34304882       0.00000000
Si      -3.36427663      -0.97726968      -0.79725584       0.00000000
Si      -0.26288313       3.33808164      -1.50080836       0.00000000
Si       0.73232347       1.92521736      -3.09919122       0.00000000
Si       3.46065412       0.46358082      -1.35989047       0.00000000
Si       2.52878467      -2.20569858       1.75008475       0.00000000
Si      -1.22656611      -2.91885849       2.14380456       0.00000000
