10
Lattice="16.28999089631971 0.0 0.0 0.0 16.28999089631971 0.0 0.0 0.0 34.56409401068381" Properties=species:S:1:pos:R:3:initial_magmoms:R:1 pbc="T T T"
Si       1.11272103      -0.24563691       2.09423963       0.00000000
Si      -1.17784845       2.06790147       0.20016078       0.00000000
Si      -1.56787992      -1.83866859       0.14154004       0.00000000
Si       1.58641794       0.87845454      -1.61262327       0.00000000
Si       2.53553850       2.33543214       0.03045098       0.00000000
Si      -0.72959652       0.60836634       3.44725184       0.00000000
Si       0.57192561       3.68988048       0.27360952       0.00000000
Si      -2.52878467       2.20569858      -1.75008475       0.00000000
Si      -2.28075150       2.03867721       2.28313251       0.00000000
Si       3.24778617       0.91613331       1.81216190       0.00000000
