10
Lattice="16.28999089631971 0.0 0.0 0.0 16.28999089631971 0.0 0.0 0.0 34.56409401068381" Properties=species:S:1:pos:R:3:initial_magmoms:R:1 pbc="T T T"
Si      -1.72896426      -0.78086115       1.53018928       0.00000000
Si       0.85666504       1.78952166       1.51675076       0.00000000
Si       1.91075021      -1.71932805       0.18128877       0.00000000
Si      -0.95132853      -0.79917111      -2.98381621       0.00000000
Si       1.47145778       2.14791795      -2.01104381       0.00000000
Si       1.36946609      -1.50574986      -2.99719252       0.00000000
Si      -0.41017473      -2.15212077       2.94934684       0.00000000
Si       2.32010162       0.57350574       2.94315987       0.00000000
Si       2.20906898       3.08560293       0.10873870       0.00000000
Si      -3.27651426      -2.00663478       0.14579143       0.00000000
