10
Lattice="16.28999089631971 0.0 0.0 0.0 16.28999089631971 0.0 0.0 0.0 34.56409401068381" Properties=species:S:1:pos:R:3:initial_magmoms:R:1 pbc="T T T"
Si      -1.71270291      -1.05704181      -1.18789945       0.00000000
Si      -0.99520660       1.41286428       1.59838286       0.00000000
Si       0.58117833      -2.03846544       1.06229346       0.00000000
Si       2.00508723       0.50279085      -1.22443371       0.00000000
Si       1.41532407      -0.73795329      -3.13126672       0.00000000
Si       2.72833065      -1.46163654       1.73930075       0.00000000
Si      -0.50852656      -2.10683457      -2.90777516       0.00000000
Si       0.84409893       2.34458712       2.73955162       0.00000000
Si      -0.73232347      -1.92521736       3.09919122       0.00000000
Si      -2.92137434       2.35866168       0.56215074       0.00000000
