10
Lattice="16.28999089631971 0.0 0.0 0.0 16.28999089631971 0.0 0.0 0.0 34.56409401068381" Properties=species:S:1:pos:R:3:initial_magmoms:R:1 pbc="T T T"
Si       1.35630987       1.35013149       1.35658269       0.00000000
Si       1.30653089      -1.37067318      -1.39424720       0.00000000
Si      -1.35999943      -1.36094805       1.36010823       0.00000000
Si      -1.30402699       1.38474774      -1.42802671       0.00000000
Si      -0.69404794      -2.12011092      -2.41403786       0.00000000
Si      -2.26660309      -0.40200462      -2.75441907       0.00000000
Si       2.55842064       0.20282679      -2.58116192       0.00000000
Si      -2.70882772       2.69909465      -0.00968832       0.00000000
Si       0.00042734       2.70906826       2.71495234       0.00000000
Si       2.71413675      -0.00542457       2.71529798       0.00000000
