10
Lattice="16.28999089631971 0.0 0.0 0.0 16.28999089631971 0.0 0.0 0.0 34.56409401068381" Properties=species:S:1:pos:R:3:initial_magmoms:R:1 pbc="T T T"
Si      -1.35735434      -1.35635427       1.35771294       0.00000000
Si       1.35668250      -1.35694071      -1.35785119       0.00000000
Si      -1.35751724       1.35754344      -1.35757468       0.00000000
Si       1.35837178       1.35967743       1.35729817       0.00000000
Si       2.71375190       0.00068418      -2.71466546       0.00000000
Si      -2.71437650       0.00001629      -2.71438895       0.00000000
Si      -0.00178478      -2.71445157      -2.71476915       0.00000000
Si       0.00208350       2.71511958       2.71470002       0.00000000
Si       2.71450124      -0.00167787       2.71532218       0.00000000
Si       2.71459898       2.71540066      -0.00017282       0.00000000
