10
Lattice="16.28999089631971 0.0 0.0 0.0 16.28999089631971 0.0 0.0 0.0 34.56409401068381" Properties=species:S:1:pos:R:3:initial_magmoms:R:1 pbc="T T T"
Si      -1.36974465      -1.37970340      -1.37610104       0.00000000
Si       0.03544704      -2.16424609       1.24085167       0.00000000
Si       1.42628724       1.44815005      -1.44996455       0.00000000
Si      -2.23901163       0.70635232       1.19149411       0.00000000
Si       1.88441091      -0.92909852       1.86117381       0.00000000
Si      -2.63748295       2.69366716      -0.11855491       0.00000000
Si       0.08878050      -2.61057580      -2.83266734       0.00000000
Si      -2.87398931      -2.58374617       0.13023758       0.00000000
Si      -2.62665010       0.08898901      -2.85302561       0.00000000
Si       0.62853336       0.41083543       3.81912714       0.00000000
