10
Lattice="16.28999089631971 0.0 0.0 0.0 16.28999089631971 0.0 0.0 0.0 34.53561885213415" Properties=species:S:1:pos:R:3:initial_magmoms:R:1 pbc="T T T"
Si      -1.34444954      -1.33942244       1.37987142       0.00000000
Si       1.35739683      -1.35190384      -1.35901190       0.00000000
Si      -1.35920502       1.36132272      -1.35794129       0.00000000
Si       1.35879777       1.36474362       1.37966421       0.00000000
Si       2.71437012      -2.70745803       0.00027629       0.00000000
Si      -0.00047241      -2.70998401      -2.71602073       0.00000000
Si      -2.71574567      -2.71133108       0.00310821       0.00000000
Si       2.71428867       0.00399105      -2.71640062       0.00000000
Si      -2.71512782       0.00405621      -2.71626248       0.00000000
Si       2.71674846       2.71831230       0.00086339       0.00000000
