10
Lattice="16.28999089631971 0.0 0.0 0.0 16.28999089631971 0.0 0.0 0.0 34.53561885213415" Properties=species:S:1:pos:R:3:initial_magmoms:R:1 pbc="T T T"
Si      -0.32684256       0.67165462       2.24492009       0.00000000
Si      -1.89586278      -0.79900132      -1.29615704       0.00000000
Si       0.90013653       1.91199965      -1.41005557       0.00000000
Si       1.81115478      -1.79098517       0.02486566       0.00000000
Si      -0.54908703      -2.15278607      -2.82073278       0.00000000
Si      -2.47008528       1.70050658       2.03045377       0.00000000
Si       2.19613635       0.55493677      -2.82905587       0.00000000
Si       0.88000209      -3.42959627      -1.42083069       0.00000000
Si       3.53818800      -0.75654881      -1.32527058       0.00000000
Si       2.78223426       2.84483021      -0.18635430       0.00000000
