10
Lattice="16.28999089631971 0.0 0.0 0.0 16.28999089631971 0.0 0.0 0.0 34.53561885213415" Properties=species:S:1:pos:R:3:initial_magmoms:R:1 pbc="T T T"
Si       1.79797617       0.61194525       1.35585331       0.00000000
Si       0.57889773      -0.03200170      -2.32853087       0.00000000
Si      -0.84607002      -1.84245669       1.32034376       0.00000000
Si      -1.91804976       1.51527788       0.12689813       0.00000000
Si       1.42099299      -2.23952544      -1.89783692       0.00000000
Si       0.52269723       2.11421231       2.72296381       0.00000000
Si      -2.18991357      -0.61807107       2.77365522       0.00000000
Si      -0.84475053       3.41944856       1.19047940       0.00000000
Si      -2.26878975      -3.06220302      -0.10916715       0.00000000
Si      -3.32541128       0.59640948      -1.79782172       0.00000000
