10
Lattice="16.28999089631971 0.0 0.0 0.0 16.28999089631971 0.0 0.0 0.0 34.53561885213415" Properties=species:S:1:pos:R:3:initial_magmoms:R:1 pbc="T T T"
Si       1.32027192       1.54478070      -1.13477200       0.00000000
Si       1.51426953      -1.38694689       1.16568139       0.00000000
Si      -1.51210296       1.34355033       1.38788369       0.00000000
Si      -0.54045333       3.04562727      -1.15563152       0.00000000
Si      -0.66223737      -1.80434556      -2.79134295       0.00000000
Si       2.75814135      -2.14307982      -1.16485254       0.00000000
Si      -0.07397289      -2.57456934       2.72848951       0.00000000
Si       1.61425755      -1.30474755      -3.17158033       0.00000000
Si       2.62860327       0.05799240       2.76726267       0.00000000
Si      -0.16169454       2.78928783       2.74780530       0.00000000
