10
Lattice="16.28999089631971 0.0 0.0 0.0 16.28999089631971 0.0 0.0 0.0 34.53561885213415" Properties=species:S:1:pos:R:3:initial_magmoms:R:1 pbc="T T T"
Si       1.45331235      -1.79502768       0.37467714       0.00000000
Si       1.02561840       1.99715400      -0.71347175       0.00000000
Si      -2.09570850      -0.82008747      -0.75228981       0.00000000
Si      -1.53743391      -0.06919992       1.88219228       0.00000000
Si       1.60070427      -1.41638292       2.69875291       0.00000000
Si       0.11396484      -3.55729617      -0.40323811       0.00000000
Si      -3.22654401       1.12301631      -1.22611876       0.00000000
Si       3.30180381       1.71400122      -0.12039123       0.00000000
Si       0.77126634       3.55037292       1.06659865       0.00000000
Si      -0.61447509      -1.64084283       3.45756995       0.00000000
