10
Lattice="16.28999089631971 0.0 0.0 0.0 16.28999089631971 0.0 0.0 0.0 34.53561885213415" Properties=species:S:1:pos:R:3:initial_magmoms:R:1 pbc="T T T"
Si      -1.13083551       1.94310378      -0.47382896       0.00000000
Si       2.09570850       0.82008747       0.75228981       0.00000000
Si      -1.43863506      -1.61764587      -1.20377420       0.00000000
Si      -1.70966808       0.74209095       1.82987079       0.00000000
Si      -0.16276968      -2.60745885       0.49216738       0.00000000
Si       0.55827459       0.75088755       2.63448209       0.00000000
Si       0.07550415       1.52379918      -3.03381767       0.00000000
Si       2.20967334      -2.73720870       0.34905169       0.00000000
Si      -0.06792930      -1.78663833      -3.08341085       0.00000000
Si       3.54902085      -0.97494021       1.12696694       0.00000000
