10
Lattice="16.28999089631971 0.0 0.0 0.0 16.28999089631971 0.0 0.0 0.0 34.53561885213415" Properties=species:S:1:pos:R:3:initial_magmoms:R:1 pbc="T T T"
Si       0.83815308      -2.20471599      -0.26706409       0.00000000
Si       0.37424646       1.30730932      -1.96766798       0.00000000
Si       1.14816807       0.79070780       1.95516608       0.00000000
Si      -2.37862996       0.08065440       0.33689515       0.00000000
Si      -1.10139948      -1.47643896       3.04276240       0.00000000
Si       2.17026783       2.71953014      -0.93619208       0.00000000
Si      -3.09007616       0.24506285      -1.87500887       0.00000000
Si      -1.76899626       2.33616128      -2.18213430       0.00000000
Si       0.40729887      -3.01691910       2.08415669       0.00000000
Si       0.75601890       3.74923733       0.60067835       0.00000000
