10
Lattice="16.28999089631971 0.0 0.0 0.0 16.28999089631971 0.0 0.0 0.0 34.53561885213415" Properties=species:S:1:pos:R:3:initial_magmoms:R:1 pbc="T T T"
Si      -1.42908912       1.27681020      -1.39990209       0.00000000
Si       0.93115269       1.63861110       1.44569635       0.00000000
Si       1.32532182      -1.44563976      -1.38277242       0.00000000
Si      -0.99737154      -1.65571560       1.57406532       0.00000000
Si       2.65818591       2.67304746       0.09556011       0.00000000
Si      -0.88000209       3.42959627       1.42083069       0.00000000
Si      -0.04681746       2.63513159      -2.77100146       0.00000000
Si      -2.77586487       2.63059495       0.12467365       0.00000000
Si       2.66838345      -0.08508267      -2.76896386       0.00000000
Si      -2.76130161      -0.08151516      -2.76913654       0.00000000
