10
Lattice="16.28999089631971 0.0 0.0 0.0 16.28999089631971 0.0 0.0 0.0 34.53561885213415" Properties=species:S:1:pos:R:3:initial_magmoms:R:1 pbc="T T T"
Si      -1.35571896       1.35575317       1.35673254       0.00000000
Si      -1.35617508      -1.35779614      -1.35707790       0.00000000
Si       1.35943308       1.35684460      -1.35731965       0.00000000
Si       1.35824391      -1.35654216       1.36274175       0.00000000
Si      -2.71212210       2.71290565       0.00031082       0.00000000
Si      -2.71290402      -0.00046752      -2.71408673       0.00000000
Si       0.00179190       2.71427401      -2.71367230       0.00000000
Si      -2.70734913      -0.00590350       2.72234075       0.00000000
Si      -2.71393029      -2.71634677       0.00020721       0.00000000
Si       2.71678104       0.00005213      -2.71394859       0.00000000
