10
Lattice="16.28999089631971 0.0 0.0 0.0 16.28999089631971 0.0 0.0 0.0 34.53561885213415" Properties=species:S:1:pos:R:3:initial_magmoms:R:1 pbc="T T T"
Si       2.11450716       0.86895747       0.75802272       0.00000000
Si      -1.48362804       0.70807743       1.78131368       0.00000000
Si      -0.25329321      -2.37710915       0.40403243       0.00000000
Si      -0.34282305       0.35282511      -2.63593258       0.00000000
Si       1.41716484       2.93723361      -0.11645417       0.00000000
Si      -3.40335567       1.39637880       0.53689103       0.00000000
Si       3.49370001      -1.19896681       0.42724038       0.00000000
Si       2.20659453       0.46011105       3.04742471       0.00000000
Si       2.13799734      -3.10701518      -0.38116984       0.00000000
Si      -0.58103172      -2.58506729       2.79493466       0.00000000
