10
Lattice="16.28999089631971 0.0 0.0 0.0 16.28999089631971 0.0 0.0 0.0 34.53561885213415" Properties=species:S:1:pos:R:3:initial_magmoms:R:1 pbc="T T T"
Si      -0.57164868       2.06462718      -0.99068932       0.00000000
Si       2.21770431      -0.24786864       0.79984538       0.00000000
Si      -0.35215722      -1.76862159      -1.54243067       0.00000000
Si      -1.50891012      -0.22893966       1.82320541       0.00000000
Si      -0.95612526      -3.38836724       0.10502288       0.00000000
Si       0.33506901       1.52391321      -3.16121964       0.00000000
Si      -2.27188485      -1.08032022      -2.78685332       0.00000000
Si      -2.94409170       2.19437703      -0.84757363       0.00000000
Si      -3.68613378      -0.05061303      -1.24998289       0.00000000
Si       0.76769883       3.82689567      -0.21277407       0.00000000
