10
Lattice="16.28999089631971 0.0 0.0 0.0 16.28999089631971 0.0 0.0 0.0 34.53561885213415" Properties=species:S:1:pos:R:3:initial_magmoms:R:1 pbc="T T T"
Si       1.38991167      -1.22341158       1.34630624       0.00000000
Si      -1.31861034       1.49473782       1.30832739       0.00000000
Si       1.72838529       0.83810421      -1.43841766       0.00000000
Si      -1.05497298      -1.79185113      -1.24179967       0.00000000
Si      -2.00836152      -0.06880896      -2.61035000       0.00000000
Si       0.30846744       0.09430281      -3.33773961       0.00000000
Si       2.63217078      -2.56433922      -0.05912847       0.00000000
Si       0.03272661      -2.57230503       2.67113130       0.00000000
Si      -2.68732872       0.14465520       2.66636539       0.00000000
Si       2.64556116       2.74784607      -0.14645873       0.00000000
