10
Lattice="16.28999089631971 0.0 0.0 0.0 16.28999089631971 0.0 0.0 0.0 34.53561885213415" Properties=species:S:1:pos:R:3:initial_magmoms:R:1 pbc="T T T"
Si       0.81003654       1.71216045      -1.34164047       0.00000000
Si       1.50868206      -1.86123024       0.33748226       0.00000000
Si      -0.02583594       1.16232408       2.12888034       0.00000000
Si      -1.89858321      -0.91160469      -1.24376647       0.00000000
Si       2.11843305       0.37574514      -2.65710293       0.00000000
Si       0.78139872      -1.97651457       2.83278572       0.00000000
Si      -1.43216793      -0.91313595       3.11176460       0.00000000
Si      -0.59839686      -2.32137387      -2.62467396       0.00000000
Si       3.24596169      -1.07595450      -1.23216250       0.00000000
Si       2.44164294       2.73528648      -0.07901754       0.00000000
