10
Lattice="16.28999089631971 0.0 0.0 0.0 16.28999089631971 0.0 0.0 0.0 34.53561885213415" Properties=species:S:1:pos:R:3:initial_magmoms:R:1 pbc="T T T"
Si      -0.70674165      -1.73110572      -1.50071162       0.00000000
Si      -1.50868206       1.86123024      -0.33748226       0.00000000
Si       1.73727963       0.78527574      -1.56964475       0.00000000
Si      -0.72728334      -0.11528433       2.49530346       0.00000000
Si       0.22209786       1.91620899       2.95379860       0.00000000
Si       3.19795506       0.85823865       1.29114937       0.00000000
Si       2.48026653       2.66843232      -0.33427044       0.00000000
Si      -2.10707892      -0.46014363      -2.96215622       0.00000000
Si      -2.48727123      -2.69969283      -0.02417495       0.00000000
Si       2.39451597      -1.31911533       2.49209165       0.00000000
