10
Lattice="16.28999089631971 0.0 0.0 0.0 16.28999089631971 0.0 0.0 0.0 34.53561885213415" Properties=species:S:1:pos:R:3:initial_magmoms:R:1 pbc="T T T"
Si       1.75661586      -1.10734533       1.16240051       0.00000000
Si       0.02583594      -1.16232408      -2.12888034       0.00000000
Si       1.04948325       2.28931515      -0.51323412       0.00000000
Si      -1.40633199      -2.07546003       0.98288426       0.00000000
Si       0.80723466      -3.13883865       0.70390538       0.00000000
Si       1.23836580      -0.25966260       3.25733232       0.00000000
Si       0.83587248       0.54983637      -3.47052081       0.00000000
Si       2.46747888       1.57296240      -2.20789788       0.00000000
Si       1.53451800      -3.02355432      -1.79139809       0.00000000
Si      -3.16039032       1.46220669      -1.84800200       0.00000000
