10
Lattice="16.28999089631971 0.0 0.0 0.0 16.28999089631971 0.0 0.0 0.0 34.53561885213415" Properties=species:S:1:pos:R:3:initial_magmoms:R:1 pbc="T T T"
Si       1.41437925      -1.86497694      -0.26264353       0.00000000
Si      -2.27618541       0.28315278      -0.59308051       0.00000000
Si       1.19593035       1.74074940      -1.07564699       0.00000000
Si      -0.49599792       0.95938326       2.13347358       0.00000000
Si      -2.53053747       1.83637170       1.18698988       0.00000000
Si       2.10771423      -1.21466385      -2.48345774       0.00000000
Si       1.68961509       1.92699297       2.61286278       0.00000000
Si      -3.30180381      -1.71400122       0.12039123       0.00000000
Si      -0.99052974      -0.90251487       3.47418159       0.00000000
Si       1.76756274       3.22615305       0.65123853       0.00000000
