10
Lattice="16.28999089631971 0.0 0.0 0.0 16.28999089631971 0.0 0.0 0.0 34.53561885213415" Properties=species:S:1:pos:R:3:initial_magmoms:R:1 pbc="T T T"
Si       1.45885747      -1.15790050       1.33853917       0.00000000
Si       1.73072128       0.97544846      -1.30821792       0.00000000
Si      -1.26446477       1.56718271       1.28892873       0.00000000
Si      -0.40460450      -2.10147909      -2.27357227       0.00000000
Si       0.32335976       0.05658006      -3.23293777       0.00000000
Si      -2.33468347      -2.32237149      -0.27672716       0.00000000
Si       0.09908718      -2.50674171       2.66980514       0.00000000
Si       2.80270102      -2.38228611      -0.11477229       0.00000000
Si      -2.62166440       0.21228151       2.66683507       0.00000000
Si       2.81501626       0.21376553       2.66773300       0.00000000
