10
Lattice="16.28999089631971 0.0 0.0 0.0 16.28999089631971 0.0 0.0 0.0 34.53561885213415" Properties=species:S:1:pos:R:3:initial_magmoms:R:1 pbc="T T T"
Si       1.35601218       1.35829894      -1.35752686       0.00000000
Si       1.35749457      -1.35707103       1.35766501       0.00000000
Si      -1.35853713      -1.35834165      -1.35569648       0.00000000
Si      -1.35816246       1.35859950       1.35759594       0.00000000
Si      -2.70884781      -0.00566892      -2.71671144       0.00000000
Si      -0.00166158      -2.71090035      -2.71543362       0.00000000
Si       0.00071676      -2.71393029       2.71498466       0.00000000
Si       2.71498914      -2.71407690       0.00013814       0.00000000
Si      -2.71463076      -2.71446786       0.00055257       0.00000000
Si      -2.71591767       0.00004887       2.71488105       0.00000000
