10
Lattice="16.28999089631971 0.0 0.0 0.0 16.28999089631971 0.0 0.0 0.0 34.53561885213415" Properties=species:S:1:pos:R:3:initial_magmoms:R:1 pbc="T T T"
Si       0.20587302      -2.26346292       0.47483049       0.00000000
Si       2.02745340       1.08519093       0.45756267       0.00000000
Si      -1.17902133       0.64573560       2.00679686       0.00000000
Si      -1.17366192       0.41531355      -2.13212669       0.00000000
Si      -1.82026089      -2.63971305       1.65346275       0.00000000
Si      -3.15154485      -0.63638514       1.69825547       0.00000000
Si       1.33226136       3.27417338       1.08915042       0.00000000
Si      -3.17418795       1.39207824      -1.49850134       0.00000000
Si      -0.11378565       2.27404883      -3.10689508       0.00000000
Si      -0.12101841      -3.62327067      -1.35293362       0.00000000
