10
Lattice="16.28999089631971 0.0 0.0 0.0 16.28999089631971 0.0 0.0 0.0 34.53561885213415" Properties=species:S:1:pos:R:3:initial_magmoms:R:1 pbc="T T T"
Si      -1.09257030       1.56509433      -1.40152527       0.00000000
Si      -1.93385106      -0.74964951       1.20349792       0.00000000
Si       1.60653676      -1.18552104      -1.39430732       0.00000000
Si       0.63535628       0.28878912       2.36272115       0.00000000
Si       2.63230829       1.48895487       2.14932544       0.00000000
Si       1.09884425      -1.98531117       2.93604728       0.00000000
Si      -2.45281788       0.18883368      -2.78184565       0.00000000
Si      -2.67683796      -2.63280609      -0.03187639       0.00000000
Si       0.26161740      -2.52092637      -2.78329615       0.00000000
Si      -3.48115671       1.17843489       1.12126856       0.00000000
