10
Lattice="16.28999089631971 0.0 0.0 0.0 16.28999089631971 0.0 0.0 0.0 34.53561885213415" Properties=species:S:1:pos:R:3:initial_magmoms:R:1 pbc="T T T"
Si      -0.74298690      -1.88315658      -1.23537431       0.00000000
Si       1.93385106       0.74964951      -1.20349792       0.00000000
Si      -1.54730565       1.92808440      -0.08222935       0.00000000
Si       0.71768853      -1.81019367       1.62541981       0.00000000
Si       2.56920734       1.03843863       1.15922323       0.00000000
Si      -1.87051554      -0.43145694      -2.66031474       0.00000000
Si       0.02199150      -0.65806713       3.49462669       0.00000000
Si      -3.17891205       0.90495837      -1.34485229       0.00000000
Si       0.84128076       2.31474384      -2.60502319       0.00000000
Si       1.01242350       1.55279538       3.14940845       0.00000000
