10
Lattice="16.28999089631971 0.0 0.0 0.0 16.28999089631971 0.0 0.0 0.0 34.53561885213415" Properties=species:S:1:pos:R:3:initial_magmoms:R:1 pbc="T T T"
Si      -0.88954803       1.05616215      -1.89196586       0.00000000
Si      -0.88801677       0.11556126       2.18503529       0.00000000
Si       1.83671772       1.48380723       0.19257072       0.00000000
Si       0.07869699      -2.32771068      -0.45511064       0.00000000
Si       1.20041010      -0.55965924       3.29394010       0.00000000
Si      -0.99729009      -2.27331837      -2.56023046       0.00000000
Si       3.23770985       0.62723016      -1.51062335       0.00000000
Si       2.27871103       1.40525685       2.46549921       0.00000000
Si      -3.25521441       0.24920442       1.86402653       0.00000000
Si      -0.19385100      -0.09596439      -3.76117274       0.00000000
