10
Lattice="16.28999089631971 0.0 0.0 0.0 16.28999089631971 0.0 0.0 0.0 34.53561885213415" Properties=species:S:1:pos:R:3:initial_magmoms:R:1 pbc="T T T"
Si       0.81436058      -2.09668590      -0.79038261       0.00000000
Si       1.07830093       1.96491609      -0.82844089       0.00000000
Si       0.06418260      -0.01215234       2.43859595       0.00000000
Si      -2.08842687       0.67522050      -1.10890481       0.00000000
Si      -1.17869553      -3.28991211      -0.08475046       0.00000000
Si      -2.12918445       2.81606859      -0.12087473       0.00000000
Si      -1.20041010       0.55965924      -3.29394010       0.00000000
Si      -0.02480967       3.52496052       0.52421645       0.00000000
Si      -2.96857557      -1.91717010       0.94164871       0.00000000
Si       0.63630762       2.04346647      -3.10136938       0.00000000
