10
Lattice="16.28999089631971 0.0 0.0 0.0 16.28999089631971 0.0 0.0 0.0 34.53561885213415" Properties=species:S:1:pos:R:3:initial_magmoms:R:1 pbc="T T T"
Si       2.10437478       0.70889193       0.64509119       0.00000000
Si       0.04075758      -2.14084809      -0.98803007       0.00000000
Si      -1.66017906       0.26687907       1.65398078       0.00000000
Si       0.02785590       1.69067394      -1.70281417       0.00000000
Si      -2.32644006      -2.00720493      -1.30903883       0.00000000
Si       3.20748538      -0.85115250      -0.70756615       0.00000000
Si      -0.29800926       3.41485641      -0.11082486       0.00000000
Si      -1.94479794       2.57634495       1.41540859       0.00000000
Si       2.12918445      -2.81606859       0.12087473       0.00000000
Si      -3.30564825      -1.15103511       0.72227834       0.00000000
