10
Lattice="16.28999089631971 0.0 0.0 0.0 16.28999089631971 0.0 0.0 0.0 34.53561885213415" Properties=species:S:1:pos:R:3:initial_magmoms:R:1 pbc="T T T"
Si       1.45648890      -1.24988283       1.43663765       0.00000000
Si      -1.26429948       1.45417572       1.44214954       0.00000000
Si       1.21683042       1.65384225      -1.33913460       0.00000000
Si      -0.91717587      -1.90974186      -1.29195892       0.00000000
Si      -2.64556116      -2.74784607       0.14645873       0.00000000
Si       2.64144209      -2.77325847      -0.02816727       0.00000000
Si       0.09756081      -2.60315829       2.81686479       0.00000000
Si      -2.61601110       0.11163537       2.81752097       0.00000000
Si      -2.66488110       2.80230354       0.08724048       0.00000000
Si       2.86606164       0.27999252      -2.72394462       0.00000000
