10
Lattice="16.28999089631971 0.0 0.0 0.0 16.28999089631971 0.0 0.0 0.0 34.53561885213415" Properties=species:S:1:pos:R:3:initial_magmoms:R:1 pbc="T T T"
Si      -0.87806358      -0.43754940      -2.16987415       0.00000000
Si       0.85777017      -2.22076683       0.25988068       0.00000000
Si       1.40998651       1.95869331      -0.28367573       0.00000000
Si      -1.87986600       0.24250923       1.53756115       0.00000000
Si      -3.61610307       0.23635161      -0.01999613       0.00000000
Si       1.29976348      -2.29931721       2.53280917       0.00000000
Si      -1.86849558      -2.64841191      -1.82465591       0.00000000
Si      -2.92276809       0.88666470      -2.24081035       0.00000000
Si      -0.97894755      -3.70457406       0.06730996       0.00000000
Si       0.19665288      -0.73927278       3.88546651       0.00000000
