10
Lattice="16.28999089631971 0.0 0.0 0.0 16.28999089631971 0.0 0.0 0.0 34.53561885213415" Properties=species:S:1:pos:R:3:initial_magmoms:R:1 pbc="T T T"
Si       0.32586516      -1.72418247      -1.59198931       0.00000000
Si       2.09000700      -0.33695865       1.06407755       0.00000000
Si      -1.13513607       2.06162982      -0.27404029       0.00000000
Si      -1.64678868      -0.83851146       1.52623346       0.00000000
Si       0.29800926      -3.41485641       0.11082486       0.00000000
Si      -3.32074908       1.09402011      -0.75342948       0.00000000
Si       2.40238404      -2.70596448       0.75591605       0.00000000
Si      -0.33226713       3.33423720       1.57499778       0.00000000
Si      -1.36216980      -3.14797734       1.76480565       0.00000000
Si      -1.41037191      -1.73034009      -3.14954659       0.00000000
