10
Lattice="16.28999089631971 0.0 0.0 0.0 16.28999089631971 0.0 0.0 0.0 34.53561885213415" Properties=species:S:1:pos:R:3:initial_magmoms:R:1 pbc="T T T"
Si      -1.64276505       1.59032754       0.51237073       0.00000000
Si      -0.80286894      -1.27260738      -1.84903807       0.00000000
Si       0.07780104      -1.02434778       2.16776747       0.00000000
Si       2.03900301       1.18371285      -0.55391710       0.00000000
Si       2.86748180       1.20392874       1.68596078       0.00000000
Si       0.33226713      -3.33423720      -1.57499778       0.00000000
Si      -0.47452770       3.44415302       1.62213892       0.00000000
Si       2.30505129      -0.67857624       2.99230583       0.00000000
Si      -2.95981155       2.09037094      -1.33739259       0.00000000
Si      -1.45182996       0.14599098       3.58089671       0.00000000
