10
Lattice="16.28999089631971 0.0 0.0 0.0 16.28999089631971 0.0 0.0 0.0 34.53561885213415" Properties=species:S:1:pos:R:3:initial_magmoms:R:1 pbc="T T T"
Si      -2.12244691      -0.81782316      -0.25884461       0.00000000
Si       1.42462566      -1.76955012      -0.50494557       0.00000000
Si       0.01552437       0.99792540       2.11727637       0.00000000
Si       0.73011780       1.79082486      -1.35103416       0.00000000
Si      -3.22555751       0.74222127       1.09381273       0.00000000
Si       2.99806047       1.79962146      -0.54642287       0.00000000
Si      -2.56444022      -0.73927278      -2.53177310       0.00000000
Si       0.66083643      -0.75702888       3.56715153       0.00000000
Si       2.27701620      -1.55872494      -2.68873757       0.00000000
Si       3.16056951      -1.95820461       1.01455344       0.00000000
