10
Lattice="16.28999089631971 0.0 0.0 0.0 16.28999089631971 0.0 0.0 0.0 34.53561885213415" Properties=species:S:1:pos:R:3:initial_magmoms:R:1 pbc="T T T"
Si       2.12244691       0.81782316       0.25884461       0.00000000
Si      -0.44199331       0.07855038      -2.27292849       0.00000000
Si      -1.10311060       1.56004443       1.35265734       0.00000000
Si      -1.07830093      -1.96491609       0.82844089       0.00000000
Si      -3.20748538       0.85115250       0.70756615       0.00000000
Si      -3.16672780      -1.28969559      -0.28046392       0.00000000
Si      -2.27871103      -1.40525685      -2.46549921       0.00000000
Si      -1.29976348       2.29931721      -2.53280917       0.00000000
Si       2.13797128       1.81574856       2.37612098       0.00000000
Si       3.54707257      -0.95172696      -0.24610096       0.00000000
