10
Lattice="16.28999089631971 0.0 0.0 0.0 16.28999089631971 0.0 0.0 0.0 34.53561885213415" Properties=species:S:1:pos:R:3:initial_magmoms:R:1 pbc="T T T"
Si      -1.26994138       1.82552256      -0.93802247       0.00000000
Si      -1.40998651      -1.95869331       0.28367573       0.00000000
Si       1.58228191       0.43699554       1.83270271       0.00000000
Si       1.49227966      -0.34513623      -2.02548064       0.00000000
Si       3.32117425      -0.44834967      -0.57940440       0.00000000
Si       2.74234168      -1.64936250       1.72429534       0.00000000
Si      -2.28805009      -2.39624271      -1.88619841       0.00000000
Si      -1.00658484       3.65834304       0.60271596       0.00000000
Si       0.22492906       1.15031835       3.73078138       0.00000000
Si       2.28262159       1.93386735      -2.65520347       0.00000000
