10
Lattice="16.28999089631971 0.0 0.0 0.0 16.28999089631971 0.0 0.0 0.0 34.53561885213415" Properties=species:S:1:pos:R:3:initial_magmoms:R:1 pbc="T T T"
Si      -0.85656078      -0.34362126      -2.17888795       0.00000000
Si       1.59477471       1.73905524       0.37826884       0.00000000
Si       1.86072525      -1.50084657       0.02085953       0.00000000
Si      -2.18498584       0.02466306       1.25637198       0.00000000
Si      -0.97164963      -1.70207694       2.54351521       0.00000000
Si       0.54045333      -3.04562727       1.15563152       0.00000000
Si      -1.39163841       1.95119991      -2.36810871       0.00000000
Si      -2.76850668       1.92371868      -0.49793483       0.00000000
Si       2.14863471       0.88523118       2.55591351       0.00000000
Si       0.79768872      -1.31038389      -3.49600811       0.00000000
