10
Lattice="16.28999089631971 0.0 0.0 0.0 16.28999089631971 0.0 0.0 0.0 34.53561885213415" Properties=species:S:1:pos:R:3:initial_magmoms:R:1 pbc="T T T"
Si      -1.34384355       1.22438561       1.45331146       0.00000000
Si      -1.42271973      -1.21974633      -1.42951092       0.00000000
Si       0.84607002       1.84245669      -1.32034376       0.00000000
Si       1.35811359      -1.47318615       1.40502718       0.00000000
Si       2.64404619       2.45440194       0.03550954       0.00000000
Si      -2.80270102       2.38228611       0.11477229       0.00000000
Si       0.11310147      -1.51153281      -3.38478061       0.00000000
Si      -1.07197974       3.35773457      -1.19344563       0.00000000
Si       0.01231524       2.59605163       2.78250528       0.00000000
Si      -3.20730552       0.28080702      -2.15879999       0.00000000
