10
Lattice="16.28999089631971 0.0 0.0 0.0 16.28999089631971 0.0 0.0 0.0 34.53561885213415" Properties=species:S:1:pos:R:3:initial_magmoms:R:1 pbc="T T T"
Si      -1.01132297      -1.79906760      -1.24711643       0.00000000
Si       0.33982895      -1.20974427       2.06177760       0.00000000
Si       1.87147665       0.93759154      -1.20370513       0.00000000
Si      -1.81925810       1.85537791      -0.27110476       0.00000000
Si      -0.02382575       1.34600102       2.43003111       0.00000000
Si      -2.18478941      -0.43176645      -2.75411354       0.00000000
Si       0.54170440       2.31016376      -2.71978511       0.00000000
Si      -2.26775438       2.10249558       1.99584906       0.00000000
Si      -2.87748908      -2.61869895       0.13009575       0.00000000
Si      -3.62045969       0.79123788      -1.39299496       0.00000000
