10
Lattice="16.28999089631971 0.0 0.0 0.0 16.28999089631971 0.0 0.0 0.0 34.53561885213415" Properties=species:S:1:pos:R:3:initial_magmoms:R:1 pbc="T T T"
Si      -2.04471691       1.12777299      -0.29631578       0.00000000
Si       0.47269312      -0.41049171       2.30760227       0.00000000
Si       1.41913398       1.71916256      -0.88231648       0.00000000
Si      -0.26335654      -1.83282048      -1.54073842       0.00000000
Si       2.69636446       0.16206921       1.82355077       0.00000000
Si       1.07134248      -0.67217427      -3.46247401       0.00000000
Si       0.70768777       1.88357102      -3.09422050       0.00000000
Si      -3.66632125      -0.28955475       0.57484570       0.00000000
Si       1.00658484      -3.65834304      -0.60271596       0.00000000
Si       0.86283536       3.93031178      -0.13033750       0.00000000
