10
Lattice="10.86 0.0 0.0 0.0 10.86 0.0 0.0 0.0 10.86" Properties=species:S:1:pos:R:3:initial_magmoms:R:1 pbc="T T T"
Si      -0.95523474       1.10449458       1.59028410       0.00000000
Si      -1.03488198      -1.69009836      -1.35801042       0.00000000
Si       1.64664750      -1.39359864       1.38798402       0.00000000
Si      -2.33739780      -0.09746850      -2.54653968       0.00000000
Si      -2.33739780       2.61753150       0.16846032       0.00000000
Si      -2.33739780      -2.81246850       0.16846032       0.00000000
Si      -2.33739780      -0.09746850       2.88346032       0.00000000
Si      -0.00273672       2.52135534      -2.74986060       0.00000000
Si       0.37760220      -2.81246850      -2.54653968       0.00000000
Si       0.37760220       2.61753150       2.88346032       0.00000000
