10
Lattice="10.86 0.0 0.0 0.0 10.86 0.0 0.0 0.0 10.86" Properties=species:S:1:pos:R:3:initial_magmoms:R:1 pbc="T T T"
Si      -1.24046178       1.39193706       1.10730732       0.00000000
Si       1.47453822      -1.32306294       1.10730732       0.00000000
Si      -1.24046178      -1.32306294      -1.60769268       0.00000000
Si      -2.59796178       0.03443706       2.46480732       0.00000000
Si       0.11703822      -2.68056294       2.46480732       0.00000000
Si       0.11703822       2.74943706       2.46480732       0.00000000
Si      -2.59796178      -2.68056294      -0.25019268       0.00000000
Si       2.83203822       0.03443706       2.46480732       0.00000000
Si      -2.59796178       2.74943706      -0.25019268       0.00000000
Si       0.43281444       2.65536774      -2.72987820       0.00000000
