10
Lattice="10.86 0.0 0.0 0.0 10.86 0.0 0.0 0.0 10.86" Properties=species:S:1:pos:R:3:initial_magmoms:R:1 pbc="T T T"
Si       0.89903424      -1.51364508      -1.28961414       0.00000000
Si       1.05958848       1.57748016       1.37607060       0.00000000
Si      -1.81596576       1.20135492      -1.28961414       0.00000000
Si      -1.81596576      -1.51364508       1.42538586       0.00000000
Si       2.09468766      -0.18538020      -2.60091570       0.00000000
Si       2.27698362      -0.07099182       2.80616970       0.00000000
Si       2.25653424      -2.87114508       0.06788586       0.00000000
Si      -0.09721872       2.45193822       2.89815390       0.00000000
Si      -0.45846576      -2.87114508      -2.64711414       0.00000000
Si      -0.37426818       2.79058560      -2.85646236       0.00000000
