10
Lattice="10.86 0.0 0.0 0.0 10.86 0.0 0.0 0.0 10.86" Properties=species:S:1:pos:R:3:initial_magmoms:R:1 pbc="T T T"
Si       1.26808962       1.17484566      -1.40015808       0.00000000
Si      -1.59735396      -1.23621552      -1.00395270       0.00000000
Si      -1.57391808       1.26274650       1.10387556       0.00000000
Si       2.21301822      -2.85910134       0.00874230       0.00000000
Si       2.44561770       0.06426948      -2.74975200       0.00000000
Si       2.44561770       2.77926948      -0.03475200       0.00000000
Si      -0.26938230      -2.65073052      -2.74975200       0.00000000
Si      -0.26938230       2.77926948       2.68024800       0.00000000
Si      -0.26938230       2.77926948      -2.74975200       0.00000000
Si      -2.98438230      -2.65073052      -0.03475200       0.00000000
