10
Lattice="10.86 0.0 0.0 0.0 10.86 0.0 0.0 0.0 10.86" Properties=species:S:1:pos:R:3:initial_magmoms:R:1 pbc="T T T"
Si       1.17752808      -1.11057618      -1.34959392       0.00000000
Si      -1.26808962      -1.17484566       1.40015808       0.00000000
Si       1.17752808       1.60442382       1.36540608       0.00000000
Si      -1.53747192       1.60442382      -1.34959392       0.00000000
Si      -0.17997192      -2.46807618      -2.70709392       0.00000000
Si       2.33607288       0.38374896       2.83765284       0.00000000
Si       2.58180210      -2.64228144       0.11477934       0.00000000
Si       2.53502808       0.24692382      -2.70709392       0.00000000
Si      -2.86544358      -2.41106118       0.39620538       0.00000000
Si      -2.84200770       0.08790084       2.50403364       0.00000000
