10
Lattice="10.86 0.0 0.0 0.0 10.86 0.0 0.0 0.0 10.86" Properties=species:S:1:pos:R:3:initial_magmoms:R:1 pbc="T T T"
Si      -1.30152756       1.39480410      -1.09175580       0.00000000
Si      -1.30152756      -1.32019590       1.62324420       0.00000000
Si       1.41347244       1.39480410       1.62324420       0.00000000
Si       0.90925350      -2.86367340      -1.58834016       0.00000000
Si      -2.65902756       0.03730410      -2.44925580       0.00000000
Si       0.10893666       2.59328112      -2.66812824       0.00000000
Si       2.83756596      -2.45785692       0.09840246       0.00000000
Si      -2.65902756      -2.67769590       0.26574420       0.00000000
Si      -2.65902756       2.75230410       0.26574420       0.00000000
Si       2.62428642       2.81938632       0.35693562       0.00000000
