10
Lattice="10.86 0.0 0.0 0.0 10.86 0.0 0.0 0.0 10.86" Properties=species:S:1:pos:R:3:initial_magmoms:R:1 pbc="T T T"
Si      -1.49040468      -1.07657352       1.06610448       0.00000000
Si       1.22459532       1.63842648       1.06610448       0.00000000
Si       1.22459532      -1.07657352      -1.64889552       0.00000000
Si      -0.13290468      -2.43407352       2.42360448       0.00000000
Si       2.58209532       0.28092648       2.42360448       0.00000000
Si       2.58209532      -2.43407352      -0.29139552       0.00000000
Si      -2.78131116      -2.21423454      -0.45873726       0.00000000
Si      -2.84790468       0.28092648       2.42360448       0.00000000
Si       0.08418672      -2.55188280      -2.85588678       0.00000000
Si      -0.13290468       2.99592648       2.42360448       0.00000000
