10
Lattice="10.86 0.0 0.0 0.0 10.86 0.0 0.0 0.0 10.86" Properties=species:S:1:pos:R:3:initial_magmoms:R:1 pbc="T T T"
Si      -1.13943120      -1.22251020       1.47752472       0.00000000
Si      -1.13943120       1.49248980      -1.23747528       0.00000000
Si       1.57556880      -1.22251020      -1.23747528       0.00000000
Si       1.71164460       1.10791548       1.69287852       0.00000000
Si      -2.49693120      -2.58001020       0.12002472       0.00000000
Si      -2.49693120       0.13498980      -2.59497528       0.00000000
Si       0.21806880      -2.58001020      -2.59497528       0.00000000
Si       0.29893236      -2.28290232       2.87801946       0.00000000
Si       2.70131640       2.53611408       0.17923344       0.00000000
Si      -2.49693120       0.13498980       2.83502472       0.00000000
