10
Lattice="10.86 0.0 0.0 0.0 10.86 0.0 0.0 0.0 10.86" Properties=species:S:1:pos:R:3:initial_magmoms:R:1 pbc="T T T"
Si       1.15332114       1.35929190       1.46764212       0.00000000
Si       1.29062412      -0.70146912      -1.78297308       0.00000000
Si      -1.56167886       1.35929190      -1.24735788       0.00000000
Si      -1.56167886      -1.35570810       1.46764212       0.00000000
Si       2.46894498      -2.44622586       0.00641826       0.00000000
Si      -0.12331530      -2.41610022      -2.56186314       0.00000000
Si      -0.10420170       2.58876336      -2.50235034       0.00000000
Si       2.43043542       2.71692222       0.18025428       0.00000000
Si       2.51082114       0.00179190       2.82514212       0.00000000
Si      -2.91917886       0.00179190      -2.60485788       0.00000000
