10
Lattice="10.86 0.0 0.0 0.0 10.86 0.0 0.0 0.0 10.86" Properties=species:S:1:pos:R:3:initial_magmoms:R:1 pbc="T T T"
Si       1.16602734       1.43373720       1.21258416       0.00000000
Si       1.16602734      -1.28126280      -1.50241584       0.00000000
Si      -1.54897266      -1.28126280       1.21258416       0.00000000
Si       2.52352734       0.07623720       2.57008416       0.00000000
Si       2.52352734      -2.63876280      -0.14491584       0.00000000
Si      -0.19147266      -2.63876280       2.57008416       0.00000000
Si       2.52352734       2.79123720      -0.14491584       0.00000000
Si      -2.94834882      -2.37178056      -0.24863970       0.00000000
Si      -0.19147266       2.79123720       2.57008416       0.00000000
Si       2.52352734       0.07623720      -2.85991584       0.00000000
