10
Lattice="16.28999089631971 0.0 0.0 0.0 16.28999089631971 0.0 0.0 0.0 34.32429715621058" Properties=species:S:1:pos:R:3:initial_magmoms:R:1 pbc="T T T"
Si       1.35677781      -1.36047564       1.35436887       0.00000000
Si       1.35607734       1.35744570      -1.35886536       0.00000000
Si      -1.35863487      -1.35782037      -1.35872806       0.00000000
Si      -1.36133901       1.36026387       1.36030698       0.00000000
Si      -0.00796581      -2.71004838       2.71467585       0.00000000
Si       2.72515410       0.00148239       2.70187288       0.00000000
Si       2.71248048      -2.71505756      -0.00133865       0.00000000
Si       2.71311579       2.71445157      -0.00164757       0.00000000
Si       2.71324611       0.00017919      -2.71549964       0.00000000
Si      -0.00177561      -2.71434243      -2.71546531       0.00000000
