10
Lattice="16.28999089631971 0.0 0.0 0.0 16.28999089631971 0.0 0.0 0.0 34.32429715621058" Properties=species:S:1:pos:R:3:initial_magmoms:R:1 pbc="T T T"
Si      -1.35697329       1.35412254      -1.36171428       0.00000000
Si       1.34475579       1.36039419       1.37410536       0.00000000
Si       1.36133901      -1.36026387      -1.36030698       0.00000000
Si      -1.35930276      -1.35640314       1.39294941       0.00000000
Si       2.65592160      -0.10150299       2.67341803       0.00000000
Si      -2.71363707       2.71151937      -0.00432486       0.00000000
Si       0.00215028       2.71226871      -2.71869180       0.00000000
Si      -2.71384884      -2.71741635       0.00024027       0.00000000
Si      -2.71326240      -0.00208512      -2.71889775       0.00000000
Si       2.71940373       2.71386513      -0.00353540       0.00000000
