10
Lattice="16.28999089631971 0.0 0.0 0.0 16.28999089631971 0.0 0.0 0.0 34.32429715621058" Properties=species:S:1:pos:R:3:initial_magmoms:R:1 pbc="T T T"
Si      -0.98275941      -2.08567386       0.39826504       0.00000000
Si       2.34546678      -0.29559834      -0.24936616       0.00000000
Si      -0.49088286       1.61987760       1.66970637       0.00000000
Si      -3.15152204      -1.30574124      -0.62442796       0.00000000
Si      -0.86032377       3.50622702       0.19619779       0.00000000
Si      -3.59106697       0.61639731       0.71638281       0.00000000
Si       3.00687336       2.04178860       0.82869197       0.00000000
Si       2.73342942      -2.27126583       1.16568811       0.00000000
Si      -2.44175697       0.80914059       2.77144827       0.00000000
Si      -1.07802333       2.49214194      -2.71412667       0.00000000
