10
Lattice="16.28999089631971 0.0 0.0 0.0 16.28999089631971 0.0 0.0 0.0 34.32429715621058" Properties=species:S:1:pos:R:3:initial_magmoms:R:1 pbc="T T T"
Si       1.79571186      -0.46499805       1.46509912       0.00000000
Si       0.04362462       2.36696958       0.23697508       0.00000000
Si      -1.62583974      -1.46610000       0.93925059       0.00000000
Si       1.01217915      -0.35043048      -2.15666544       0.00000000
Si       3.49029540       0.72948249       0.35154965       0.00000000
Si      -1.18311012      -3.38576247      -0.30987993       0.00000000
Si       2.35530594       2.79572238       0.68531930       0.00000000
Si      -1.01739195       3.19924197      -1.76354905       0.00000000
Si       3.23955972       0.52561314      -1.99036413       0.00000000
Si       1.24212879       0.41721948       3.66576834       0.00000000
