10
Lattice="16.28999089631971 0.0 0.0 0.0 16.28999089631971 0.0 0.0 0.0 34.32429715621058" Properties=species:S:1:pos:R:3:initial_magmoms:R:1 pbc="T T T"
Si       0.44272962      -1.91966247      -1.24913052       0.00000000
Si       1.62583974       1.46610000      -0.93925059       0.00000000
Si      -2.21011317       0.07747524      -0.95510843       0.00000000
Si       0.43525251      -0.66474603       2.30731487       0.00000000
Si      -1.46507373      -3.19916052      -0.52076853       0.00000000
Si       3.42155160       1.00110195       0.52584853       0.00000000
Si      -1.67436765      -1.26833940       3.12025198       0.00000000
Si      -2.08673271       1.48263435      -2.80172232       0.00000000
Si       2.65005720      -2.63324592      -0.68233308       0.00000000
Si       0.75720807       1.28451537       3.52795621       0.00000000
