10
Lattice="16.28999089631971 0.0 0.0 0.0 16.28999089631971 0.0 0.0 0.0 34.32429715621058" Properties=species:S:1:pos:R:3:initial_magmoms:R:1 pbc="T T T"
Si      -0.48356865      -1.85914512      -1.30150943       0.00000000
Si       0.36729063      -0.48835791       2.25160650       0.00000000
Si       2.10962016       0.60359337      -0.81293711       0.00000000
Si      -1.45705905       1.83133809       0.31749993       0.00000000
Si       2.43157572       2.55285477       0.40770423       0.00000000
Si       2.74673835      -0.92836710       2.14430869       0.00000000
Si       0.26793792       3.61580985      -0.06473566       0.00000000
Si      -1.90773819      -0.80884737       3.05057361       0.00000000
Si       0.92973546      -3.56606833      -0.40262423       0.00000000
Si       0.78985323       1.56203181       3.32053436       0.00000000
