10
Lattice="16.28999089631971 0.0 0.0 0.0 16.28999089631971 0.0 0.0 0.0 34.32429715621058" Properties=species:S:1:pos:R:3:initial_magmoms:R:1 pbc="T T T"
Si      -1.35703845       1.35663120       1.35708050       0.00000000
Si       1.35733167       1.35700587      -1.35708050       0.00000000
Si      -1.35827649      -1.35677781      -1.35735509       0.00000000
Si       1.35744570      -1.35808101       1.35725212       0.00000000
Si      -2.71350838       0.00092853      -2.71443558       0.00000000
Si      -0.00089595       2.71285515      -2.71563694       0.00000000
Si      -2.71424795       2.71441899      -0.00013730       0.00000000
Si       2.71394658      -0.00216657       2.71477883       0.00000000
Si      -2.71525792      -0.00066789       2.71422964       0.00000000
Si       2.71552671       2.71404432       0.00013730       0.00000000
