10
Lattice="16.28999089631971 0.0 0.0 0.0 16.28999089631971 0.0 0.0 0.0 34.32429715621058" Properties=species:S:1:pos:R:3:initial_magmoms:R:1 pbc="T T T"
Si       1.65164310      -1.17850005       1.22510350       0.00000000
Si      -2.22211890      -0.43956936       0.78135874       0.00000000
Si       0.90660366       2.09813571       0.79076360       0.00000000
Si      -0.38832102      -0.23385924      -2.40716430       0.00000000
Si       3.55944645       0.10099800       0.49674151       0.00000000
Si      -2.97515233      -2.31594115      -0.42222342       0.00000000
Si       1.02998412       3.50329482      -1.05585029       0.00000000
Si      -3.52513061       1.46015415       0.20906941       0.00000000
Si      -0.82811844       3.34176318       1.66170880       0.00000000
Si       0.95878053      -1.10682405       3.56461458       0.00000000
