10
Lattice="16.28999089631971 0.0 0.0 0.0 16.28999089631971 0.0 0.0 0.0 34.32429715621058" Properties=species:S:1:pos:R:3:initial_magmoms:R:1 pbc="T T T"
Si       1.33921719       1.35966114      -1.37180563       0.00000000
Si      -1.49276673       1.18076436       1.40413913       0.00000000
Si      -1.37487600      -1.35431802      -1.37310995       0.00000000
Si       1.38311874      -1.24475148       1.51548721       0.00000000
Si      -0.46328760      -2.13206778       2.79396503       0.00000000
Si       2.68351686      -2.70544320       0.00532027       0.00000000
Si      -2.36289708      -0.65397834       2.92446608       0.00000000
Si       2.70345582       2.71735119      -0.00758567       0.00000000
Si       2.69741223       0.00234576      -2.72995018       0.00000000
Si      -2.74169659       2.69552259       0.00288324       0.00000000
