10
Lattice="16.28999089631971 0.0 0.0 0.0 16.28999089631971 0.0 0.0 0.0 34.32429715621058" Properties=species:S:1:pos:R:3:initial_magmoms:R:1 pbc="T T T"
Si      -0.04362462      -2.36696958      -0.23697508       0.00000000
Si      -1.39246920       1.11593016       1.58664152       0.00000000
Si       2.31168132       0.42875280       0.44834422       0.00000000
Si      -1.06101657       0.83227239      -2.00052413       0.00000000
Si       1.75208724      -2.83196763       1.22812404       0.00000000
Si      -3.45999600       0.70022565       0.43066720       0.00000000
Si      -3.23938053      -0.07034022      -1.84616768       0.00000000
Si       0.96855453      -2.71740006      -2.39364052       0.00000000
Si       2.42782902       1.24002738       2.66820073       0.00000000
Si       3.44667078      -1.63748709       0.11457457       0.00000000
