10
Lattice="16.28999089631971 0.0 0.0 0.0 16.28999089631971 0.0 0.0 0.0 34.32429715621058" Properties=species:S:1:pos:R:3:initial_magmoms:R:1 pbc="T T T"
Si      -1.10490183      -1.68493986       1.28473311       0.00000000
Si       1.72108737       1.03200408       1.30629222       0.00000000
Si       1.16631513      -1.40082597      -1.63716692       0.00000000
Si      -1.89193689       1.66472397      -0.13994024       0.00000000
Si       0.33410790       2.37939885       2.75502207       0.00000000
Si      -2.38992219      -0.34845939       2.77558920       0.00000000
Si      -3.00837204       0.39488589      -2.12065924       0.00000000
Si      -0.37664109      -2.87446824      -2.77748935       0.00000000
Si      -1.09716408       3.63581397       1.30395473       0.00000000
Si      -3.18503709      -2.48922603       0.19075502       0.00000000
