10
Lattice="16.28999089631971 0.0 0.0 0.0 16.28999089631971 0.0 0.0 0.0 34.32429715621058" Properties=species:S:1:pos:R:3:initial_magmoms:R:1 pbc="T T T"
Si      -1.35526284       1.35552348       1.35567320       0.00000000
Si       1.35856971       1.35575125      -1.35756104       0.00000000
Si      -1.35685926      -1.35951453      -1.35711482       0.00000000
Si       1.35672894      -1.35930276       1.36020401       0.00000000
Si      -2.71423980      -0.01518228       2.69754802       0.00000000
Si      -2.71316466       2.71032761       0.00061784       0.00000000
Si       0.00055386       2.71354163      -2.71405802       0.00000000
Si       2.71480995       2.71282650       0.00006865       0.00000000
Si      -2.71404432      -0.00213399      -2.71412667       0.00000000
Si      -2.71370223      -2.71639008       0.00089243       0.00000000
