10
Lattice="16.28999089631971 0.0 0.0 0.0 16.28999089631971 0.0 0.0 0.0 34.32429715621058" Properties=species:S:1:pos:R:3:initial_magmoms:R:1 pbc="T T T"
Si       1.35624024       1.35707525       1.35762968       0.00000000
Si      -1.35856971      -1.35575125       1.35756104       0.00000000
Si      -1.35801585       1.35779038      -1.35649698       0.00000000
Si       1.35752715      -1.35829249      -1.35663428       0.00000000
Si       0.00053757       2.71165716       2.71333721       0.00000000
Si      -2.71383255      -0.00022777       2.71323423       0.00000000
Si      -2.71401174       0.00107331      -2.71471018       0.00000000
Si      -0.00086337      -2.71518433      -2.71371477       0.00000000
Si      -0.00055386       2.71528983      -2.71381775       0.00000000
Si      -2.71487511       2.71431243       0.00024027       0.00000000
