10
Lattice="16.28999089631971 0.0 0.0 0.0 16.28999089631971 0.0 0.0 0.0 34.32429715621058" Properties=species:S:1:pos:R:3:initial_magmoms:R:1 pbc="T T T"
Si       1.35570267      -1.35458192      -1.35570752       0.00000000
Si      -1.35677781       1.36047564      -1.35436887       0.00000000
Si      -1.36474362      -1.34957274       1.36030698       0.00000000
Si       1.36837629       1.36195803       1.34750401       0.00000000
Si      -0.06219522       2.61923652       2.67935613       0.00000000
Si       2.62143567      -0.05668920       2.74759287       0.00000000
Si      -0.00053757      -2.71165716      -2.71333721       0.00000000
Si      -2.71437012      -2.71188494      -0.00010297       0.00000000
Si       2.71407690       0.00294849      -2.71295964       0.00000000
Si      -2.71541268       0.00265527      -2.71309694       0.00000000
