10
Lattice="16.28999089631971 0.0 0.0 0.0 16.28999089631971 0.0 0.0 0.0 34.32429715621058" Properties=species:S:1:pos:R:3:initial_magmoms:R:1 pbc="T T T"
Si      -1.35720135      -1.35659862       1.35714914       0.00000000
Si       1.35524655      -1.35865116      -1.35910563       0.00000000
Si       1.35716877       1.35860229       1.35735509       0.00000000
Si      -1.35687555       1.36085031      -1.36054725       0.00000000
Si      -0.00809613      -2.68555311      -2.72053158       0.00000000
Si       2.71358820       2.71430496      -0.00051486       0.00000000
Si      -0.00003258      -2.71422351       2.71392072       0.00000000
Si       2.71461447       0.00102627       2.71422964       0.00000000
Si       2.71523349      -2.71384884      -0.00048054       0.00000000
Si      -2.71529865       0.00086337       2.71440126       0.00000000
