10
Lattice="16.28999089631971 0.0 0.0 0.0 16.28999089631971 0.0 0.0 0.0 34.32429715621058" Properties=species:S:1:pos:R:3:initial_magmoms:R:1 pbc="T T T"
Si       0.59813622      -1.34666172       1.76495635       0.00000000
Si      -1.29744963      -1.38732156      -1.36669130       0.00000000
Si       1.44432027       1.37779191      -1.24882160       0.00000000
Si      -1.37751498       1.38952071       1.44790264       0.00000000
Si       0.51350967       2.94412428       2.02372737       0.00000000
Si       0.67732191       0.07771959       3.63110078       0.00000000
Si      -2.15809920      -3.02664942       0.12370484       0.00000000
Si      -2.60861544       0.07457562      -2.66600397       0.00000000
Si       0.13312188      -2.64460005      -2.69854343       0.00000000
Si       0.11284083       2.77283493      -2.67465370       0.00000000
