10
Lattice="16.28999089631971 0.0 0.0 0.0 16.28999089631971 0.0 0.0 0.0 34.32429715621058" Properties=species:S:1:pos:R:3:initial_magmoms:R:1 pbc="T T T"
Si       0.90966618      -0.17554104      -2.14801572       0.00000000
Si       1.22531751       0.28246860       2.01730872       0.00000000
Si      -2.39171409      -0.13517442       0.15202240       0.00000000
Si       0.83714310      -2.32178112      -0.00816919       0.00000000
Si      -0.91235403      -1.09450881      -3.30392139       0.00000000
Si      -2.41271190      -2.08661868      -1.67976339       0.00000000
Si       3.49552449       0.69198291       1.24154485       0.00000000
Si       0.54692046       2.35033749       2.93139959       0.00000000
Si      -3.23695332       2.09821716      -0.07190944       0.00000000
Si       2.59195077      -2.12328747      -1.92463307       0.00000000
