10
Lattice="16.28999089631971 0.0 0.0 0.0 16.28999089631971 0.0 0.0 0.0 34.32429715621058" Properties=species:S:1:pos:R:3:initial_magmoms:R:1 pbc="T T T"
Si      -1.35773061       1.35879777      -1.35570752       0.00000000
Si      -1.35701385      -1.35762489       1.35790428       0.00000000
Si       1.35744002       1.35762489       1.35811022       0.00000000
Si       1.35795315      -1.36065483      -1.35605077       0.00000000
Si      -0.00874095       2.71394658      -2.69329524       0.00000000
Si      -2.71439439       2.71270854       0.00054919       0.00000000
Si      -2.71398714      -0.00040725       2.71484748       0.00000000
Si       0.00102866       2.71440270       2.71467585       0.00000000
Si       0.00001165      -2.71474479       2.71467585       0.00000000
Si       2.71476028       0.00068418       2.71467585       0.00000000
