10
Lattice="16.28999089631971 0.0 0.0 0.0 16.28999089631971 0.0 0.0 0.0 34.32429715621058" Properties=species:S:1:pos:R:3:initial_magmoms:R:1 pbc="T T T"
Si       1.95489774      -0.81658512       0.93966248       0.00000000
Si       0.31587939       2.32021728      -0.02014837       0.00000000
Si      -0.11614770      -0.81127458      -2.21985651       0.00000000
Si      -1.10250720      -1.06622937       1.80837661       0.00000000
Si      -1.22932485      -3.18977748       0.76059253       0.00000000
Si      -1.77870510       3.07146321       0.76848712       0.00000000
Si       3.68080695      -0.21183516      -0.47872124       0.00000000
Si       1.98816192       0.10487502       3.16408413       0.00000000
Si      -2.42782902      -1.24002738      -2.66820073       0.00000000
Si       1.05555942       0.61458912      -3.68344536       0.00000000
