10
Lattice="16.28999089631971 0.0 0.0 0.0 16.28999089631971 0.0 0.0 0.0 34.32429715621058" Properties=species:S:1:pos:R:3:initial_magmoms:R:1 pbc="T T T"
Si       1.35738054      -1.35703524      -1.35697752       0.00000000
Si       1.35826020       1.35542636       1.35776698       0.00000000
Si      -1.35760045       1.35808326      -1.35670293       0.00000000
Si      -1.35769168      -1.35833844       1.35690887       0.00000000
Si       0.00063531      -2.71101117       2.71491613       0.00000000
Si       2.71456560      -2.71441578       0.00003432       0.00000000
Si       2.71616202       0.00062223       2.71282234       0.00000000
Si      -0.00122175       2.71480406      -2.71429829       0.00000000
Si      -2.71527330      -2.71464384       0.00017162       0.00000000
Si       2.71511946       2.71516244      -0.00017162       0.00000000
