10
Lattice="16.28999089631971 0.0 0.0 0.0 16.28999089631971 0.0 0.0 0.0 34.32429715621058" Properties=species:S:1:pos:R:3:initial_magmoms:R:1 pbc="T T T"
Si       1.35765747       1.35576527      -1.35766401       0.00000000
Si       1.35764118      -1.35734796       1.35728644       0.00000000
Si      -1.35839052      -1.35689184      -1.35708050       0.00000000
Si      -1.35752715       1.35829249       1.35663428       0.00000000
Si       2.71679733      -0.00223173      -2.71093450       0.00000000
Si       2.71379997      -0.00026064       2.71471018       0.00000000
Si       2.71482624      -2.71463076      -0.00020595       0.00000000
Si      -0.00128691       2.71536774       2.71426396       0.00000000
Si      -2.71487511      -2.71490769       0.00010297       0.00000000
Si      -2.71609686       0.00254124       2.71419531       0.00000000
