10
Lattice="16.28999089631971 0.0 0.0 0.0 16.28999089631971 0.0 0.0 0.0 34.32429715621058" Properties=species:S:1:pos:R:3:initial_magmoms:R:1 pbc="T T T"
Si      -1.44259353       1.30544802       1.33301915       0.00000000
Si       1.34376210       1.36680820      -1.37616481       0.00000000
Si      -1.37627694      -1.34869797      -1.37341887       0.00000000
Si       1.47118248      -1.29455001       1.46324561       0.00000000
Si       2.68983738       2.69886923       0.00535459       0.00000000
Si       2.69586468      -2.69910639      -0.01534297       0.00000000
Si       2.69689095       0.00780291      -2.73310801       0.00000000
Si      -2.72732067      -2.70804960      -0.01070919       0.00000000
Si      -0.01736514      -2.70848943      -2.73297072       0.00000000
Si      -0.01819593       2.72343129      -2.73355423       0.00000000
