10
Lattice="16.28999089631971 0.0 0.0 0.0 16.28999089631971 0.0 0.0 0.0 34.32429715621058" Properties=species:S:1:pos:R:3:initial_magmoms:R:1 pbc="T T T"
Si      -1.02379392      -1.82050524       1.08883596       0.00000000
Si       1.22468220      -1.40455638      -1.47858857       0.00000000
Si      -1.47118248       1.29455001      -1.46324561       0.00000000
Si       1.82825928       0.82271016       1.46427533       0.00000000
Si       2.61742833       2.62093068       0.03374080       0.00000000
Si       2.49173469      -2.76444558      -0.04695566       0.00000000
Si       2.58235596      -0.05675436      -2.83831204       0.00000000
Si       3.45923037      -1.12366791       1.34372834       0.00000000
Si      -0.12742038       2.66135821      -2.83941042       0.00000000
Si      -2.91377601       2.59999803      -0.13022646       0.00000000
