10
Lattice="16.28999089631971 0.0 0.0 0.0 16.28999089631971 0.0 0.0 0.0 34.32429715621058" Properties=species:S:1:pos:R:3:initial_magmoms:R:1 pbc="T T T"
Si       0.81200763       1.87932843       1.13890347       0.00000000
Si       1.68026463      -1.66702575      -0.15700183       0.00000000
Si       0.79381170       0.31682421      -2.25710461       0.00000000
Si      -2.01131001      -0.85582936       1.02537579       0.00000000
Si      -0.59618142      -2.14650600       2.49375632       0.00000000
Si       2.16771030       0.56158146       2.48513748       0.00000000
Si       0.78548751      -3.44638475       1.14454982       0.00000000
Si       3.54954932      -0.69152842       0.98916707       0.00000000
Si       1.76103045       3.49817976      -0.23711860       0.00000000
Si       0.20540061      -1.59944831      -3.63409321       0.00000000
