10
Lattice="16.28999089631971 0.0 0.0 0.0 16.28999089631971 0.0 0.0 0.0 34.32429715621058" Properties=species:S:1:pos:R:3:initial_magmoms:R:1 pbc="T T T"
Si      -1.34126973      -1.35315902       1.38031806       0.00000000
Si       1.35851011      -1.35701975      -1.35958617       0.00000000
Si      -1.35710361       1.35968051      -1.35859076       0.00000000
Si       1.34904562       1.36654023       1.37506644       0.00000000
Si       2.71683710      -2.70969248      -0.00157892       0.00000000
Si       0.00092849      -2.71332515      -2.71632342       0.00000000
Si      -2.71077003       2.71902236       0.00030892       0.00000000
Si      -2.71415835       0.00166115      -2.71635775       0.00000000
Si      -2.71581993      -2.71549172      -0.00078946       0.00000000
Si       2.71476827       2.71714901       0.00260865       0.00000000
