10
Lattice="16.28999089631971 0.0 0.0 0.0 16.28999089631971 0.0 0.0 0.0 34.32429715621058" Properties=species:S:1:pos:R:3:initial_magmoms:R:1 pbc="T T T"
Si      -0.60492915      -0.50956749      -2.19139689       0.00000000
Si      -1.93782582      -0.66712437       1.16847799       0.00000000
Si       0.70208271       1.95351309       1.26460324       0.00000000
Si       1.82285100      -1.71185094      -0.11474142       0.00000000
Si       1.05138918       1.17234243      -2.82893674       0.00000000
Si      -0.52103565      -1.94685048       2.60140836       0.00000000
Si       2.19593934       0.77906925       2.63334370       0.00000000
Si       0.87382818      -3.33070227       1.26128064       0.00000000
Si       3.42554658      -0.64366677       1.27962699       0.00000000
Si      -3.26151864      -2.05035714      -0.30963489       0.00000000
