10
Lattice="16.28999089631971 0.0 0.0 0.0 16.28999089631971 0.0 0.0 0.0 34.32429715621058" Properties=species:S:1:pos:R:3:initial_magmoms:R:1 pbc="T T T"
Si      -1.75417236      -0.90271035      -1.35670293       0.00000000
Si      -1.43562141       0.11767896       1.94615441       0.00000000
Si       1.01407539       1.80841806      -1.27957619       0.00000000
Si       1.89368874      -1.64990007      -0.05426674       0.00000000
Si      -0.35600166      -2.10307158      -2.80463989       0.00000000
Si       2.37259682       0.60185034      -2.78435422       0.00000000
Si      -0.20364129      -1.11079881       3.60522024       0.00000000
Si       0.93274911      -3.42751374      -1.39981427       0.00000000
Si       2.73776975       2.66605398       0.14896753       0.00000000
Si      -2.71829601      -2.74554918      -0.08745836       0.00000000
