10
Lattice="16.28999089631971 0.0 0.0 0.0 16.28999089631971 0.0 0.0 0.0 34.32429715621058" Properties=species:S:1:pos:R:3:initial_magmoms:R:1 pbc="T T T"
Si      -2.08267650       0.42389838      -1.00789922       0.00000000
Si       0.83709423      -2.19854727      -0.23316508       0.00000000
Si      -0.73930536       0.14646339       2.25071407       0.00000000
Si       1.91687688       1.40313915      -0.11550132       0.00000000
Si       0.57928869       3.08957769       1.06700570       0.00000000
Si       3.01927153       0.62675775       1.81421174       0.00000000
Si       1.35283563      -0.03767877       3.32166707       0.00000000
Si      -1.14662052       2.48482773       2.48538942       0.00000000
Si      -1.00683603      -3.55359834      -0.74988334       0.00000000
Si      -3.77726004      -0.77058216       0.10565025       0.00000000
