10
Lattice="16.28999089631971 0.0 0.0 0.0 16.28999089631971 0.0 0.0 0.0 34.32429715621058" Properties=species:S:1:pos:R:3:initial_magmoms:R:1 pbc="T T T"
Si      -1.33933122      -1.35247725       1.38144389       0.00000000
Si       1.23160545      -1.54025208      -1.32131456       0.00000000
Si       1.37990961       1.35698958       1.37753092       0.00000000
Si      -1.33151202       1.30841280      -1.58732114       0.00000000
Si      -2.67248853       2.70485676       0.01053757       0.00000000
Si      -2.69490357      -2.70744687      -0.00083065       0.00000000
Si       2.94698873      -0.36056286      -2.42014782       0.00000000
Si      -2.69672805      -0.00016290       2.74068682       0.00000000
Si       2.72546208      -2.71469592       0.04742591       0.00000000
Si       0.01980864      -2.71593396       2.74127034       0.00000000
