10
Lattice="16.28999089631971 0.0 0.0 0.0 16.28999089631971 0.0 0.0 0.0 34.32429715621058" Properties=species:S:1:pos:R:3:initial_magmoms:R:1 pbc="T T T"
Si       1.35698958       1.35615879       1.35725212       0.00000000
Si      -1.35726651       1.35681039      -1.35711482       0.00000000
Si       1.35760860      -1.35842310      -1.35704617       0.00000000
Si      -1.35830907      -1.35772263       1.35786995       0.00000000
Si      -0.00164529       2.71207323       2.71584288       0.00000000
Si      -2.71445157       2.71409319       0.00037757       0.00000000
Si       2.71510313       2.71423980       0.00030892       0.00000000
Si      -0.00192222       2.71643895      -2.71326856       0.00000000
Si      -2.71513575      -2.71542897       0.00013730       0.00000000
Si      -2.71616202      -0.00215028      -2.71460721       0.00000000
