10
Lattice="16.28999089631971 0.0 0.0 0.0 16.28999089631971 0.0 0.0 0.0 34.32429715621058" Properties=species:S:1:pos:R:3:initial_magmoms:R:1 pbc="T T T"
Si      -1.35682668      -1.35770634      -1.35773266       0.00000000
Si       1.35830907       1.35772263      -1.35786995       0.00000000
Si      -1.35733167       1.35920502       1.36089049       0.00000000
Si       1.36070370      -1.35858600       1.36240076       0.00000000
Si      -2.71423980       2.71261080       0.00006865       0.00000000
Si      -2.71427238      -0.00013032      -2.71460721       0.00000000
Si       2.71529865       2.71388142      -0.00061784       0.00000000
Si       0.00104256       2.71453302      -2.71498477       0.00000000
Si       0.00096111      -2.71547784      -2.71460721       0.00000000
Si      -2.71443528      -2.71595025      -0.00082378       0.00000000
