10
Lattice="16.28999089631971 0.0 0.0 0.0 16.28999089631971 0.0 0.0 0.0 34.32429715621058" Properties=species:S:1:pos:R:3:initial_magmoms:R:1 pbc="T T T"
Si      -0.17783793       0.47721555       2.29255541       0.00000000
Si       0.78118762       2.10756762      -0.70721821       0.00000000
Si       1.59726938      -1.26498366      -1.25256295       0.00000000
Si      -2.11506102      -0.24925329      -1.16479567       0.00000000
Si       0.82605843      -3.11785713       1.57833504       0.00000000
Si      -1.54429200      -1.97376156      -2.73822234       0.00000000
Si       0.63667577      -1.35252612      -3.40940002       0.00000000
Si      -0.15327261       2.47407633      -2.80206556       0.00000000
Si      -2.37009726       1.83348837      -2.32327568       0.00000000
Si      -2.40645654       1.33903800       2.64448263       0.00000000
