10
Lattice="16.28999089631971 0.0 0.0 0.0 16.28999089631971 0.0 0.0 0.0 34.32429715621058" Properties=species:S:1:pos:R:3:initial_magmoms:R:1 pbc="T T T"
Si      -1.46282571      -0.99487917      -1.50086506       0.00000000
Si       0.42765878      -1.25981973       1.96377587       0.00000000
Si       2.31732485      -0.15731253      -0.48709637       0.00000000
Si      -0.53882433       2.31394563       0.15294915       0.00000000
Si       1.63361074       0.46077894       3.01542693       0.00000000
Si      -0.93841803      -3.22067961      -1.03093084       0.00000000
Si      -2.43317214       1.96476948       1.59508530       0.00000000
Si      -0.88736517      -0.06537177      -3.63988780       0.00000000
Si       2.61676763       1.05471234      -2.51123563       0.00000000
Si      -0.40992156       3.18647061      -2.07215898       0.00000000
