10
Lattice="16.28999089631971 0.0 0.0 0.0 16.28999089631971 0.0 0.0 0.0 34.32429715621058" Properties=species:S:1:pos:R:3:initial_magmoms:R:1 pbc="T T T"
Si       0.78916905       1.79822052      -1.43053453       0.00000000
Si      -1.82825928      -0.82271016      -1.46427533       0.00000000
Si      -0.41220216       0.54522630       2.42772457       0.00000000
Si       1.63097109      -1.94637807      -0.12054700       0.00000000
Si      -0.26619489      -1.77569145       3.01412119       0.00000000
Si       2.12864688       0.48286818      -2.92147986       0.00000000
Si      -0.60357708      -2.22726654      -2.94286391       0.00000000
Si       3.44245167      -0.96057243      -1.48236425       0.00000000
Si      -2.85205320      -2.64321540      -0.37543937       0.00000000
Si       0.66347541      -3.58715574      -1.51123100       0.00000000
