10
Lattice="16.28999089631971 0.0 0.0 0.0 16.28999089631971 0.0 0.0 0.0 34.32429715621058" Properties=species:S:1:pos:R:3:initial_magmoms:R:1 pbc="T T T"
Si       1.33947783      -1.31535234      -1.49094533       0.00000000
Si      -0.78916905      -1.79822052       1.43053453       0.00000000
Si       0.89006931       1.92258557       1.25156755       0.00000000
Si      -1.39877343       1.37248856      -1.49163182       0.00000000
Si      -2.61742833      -2.62093068      -0.03374080       0.00000000
Si      -1.04835924       3.47262794       1.18793026       0.00000000
Si       2.60268588       2.79066338      -0.12442565       0.00000000
Si       2.65328262      -2.75879295      -0.05182972       0.00000000
Si      -2.84107374       2.69494334      -0.12724024       0.00000000
Si      -0.03507237      -2.67768504      -2.87205285       0.00000000
