10
Lattice="16.28999089631971 0.0 0.0 0.0 16.28999089631971 0.0 0.0 0.0 34.32429715621058" Properties=species:S:1:pos:R:3:initial_magmoms:R:1 pbc="T T T"
Si       1.35641136      -1.35677781      -1.35656563       0.00000000
Si       1.35644068       1.35804843       1.35718347       0.00000000
Si      -1.35760268      -1.35834165       1.35670293       0.00000000
Si      -1.35818912       1.35780408      -1.35714914       0.00000000
Si       2.71373163      -2.71371852       0.00000000       0.00000000
Si       2.71342212       0.00193851      -2.71440126       0.00000000
Si       2.71335696      -0.00011403       2.71457288       0.00000000
Si       0.00003850      -2.71419093       2.71457288       0.00000000
Si      -0.00102866      -2.71440270      -2.71467585       0.00000000
Si       0.00078485       2.71410948      -2.71501910       0.00000000
