10
Lattice="16.28999089631971 0.0 0.0 0.0 16.28999089631971 0.0 0.0 0.0 34.32429715621058" Properties=species:S:1:pos:R:3:initial_magmoms:R:1 pbc="T T T"
Si      -1.35644068      -1.35804843      -1.35718347       0.00000000
Si       1.35691628      -1.35816246       1.35738941       0.00000000
Si       1.35821947       1.35729909      -1.35714914       0.00000000
Si      -1.35461028       1.36001952       1.35876239       0.00000000
Si      -0.00990432       2.69167815       2.73338261       0.00000000
Si      -0.00002932      -2.71482624      -2.71374910       0.00000000
Si      -2.71462980      -0.00024435      -2.71433261       0.00000000
Si       2.71358005      -2.71555929       0.00000000       0.00000000
Si       0.00100998       2.71508688      -2.71436694       0.00000000
Si       2.71525792       0.00066789      -2.71422964       0.00000000
