10
Lattice="16.28999089631971 0.0 0.0 0.0 16.28999089631971 0.0 0.0 0.0 34.32429715621058" Properties=species:S:1:pos:R:3:initial_magmoms:R:1 pbc="T T T"
Si      -1.35799304       1.35817875      -1.36212617       0.00000000
Si       1.35969372      -1.36040396      -1.36133671       0.00000000
Si      -1.36572265      -1.35060879       1.37245779       0.00000000
Si       1.35454608       1.36101321       1.39270914       0.00000000
Si      -2.71310669       2.71485882      -0.00456513       0.00000000
Si       2.71384884       2.71741635      -0.00024027       0.00000000
Si      -2.71476827      -2.71714901      -0.00260865       0.00000000
Si       2.71759554      -2.71520810      -0.00628135       0.00000000
Si      -2.71416219      -0.00009774      -2.71913802       0.00000000
Si       0.00058644       2.71533123      -2.71913802       0.00000000
