10
Lattice="16.28999089631971 0.0 0.0 0.0 16.28999089631971 0.0 0.0 0.0 34.32429715621058" Properties=species:S:1:pos:R:3:initial_magmoms:R:1 pbc="T T T"
Si       1.30216396      -1.36143675       1.39372514       0.00000000
Si      -1.20595196      -1.72059867      -1.05165106       0.00000000
Si      -1.41058831       1.36601424       1.37696114       0.00000000
Si       1.80014926       0.65174661      -1.52180430       0.00000000
Si      -1.63361074      -0.46077894      -3.01542693       0.00000000
Si       0.68371411      -0.61809147      -3.50252330       0.00000000
Si       2.59492207       2.62283661      -0.07790933       0.00000000
Si       0.50704906      -3.50220339      -1.19110904       0.00000000
Si       2.58718432      -2.69791722      -0.09713095       0.00000000
Si       2.65309366      -0.00270414       2.75121066       0.00000000
