10
Lattice="16.28999089631971 0.0 0.0 0.0 16.28999089631971 0.0 0.0 0.0 34.32429715621058" Properties=species:S:1:pos:R:3:initial_magmoms:R:1 pbc="T T T"
Si      -1.35853780       1.35268902       1.35639401       0.00000000
Si       1.35737077      -1.36071999       1.35557023       0.00000000
Si      -1.35020128      -1.35092970      -1.37558817       0.00000000
Si       1.34446909       1.34636850      -1.38783851       0.00000000
Si      -2.71572286       0.06283053      -2.70304334       0.00000000
Si      -0.00034372       2.71197453       2.71467585       0.00000000
Si       2.71581016       2.71254468      -0.00116703       0.00000000
Si      -2.71707493       2.71158194      -0.00398162       0.00000000
Si       2.71463728      -0.00314397       2.71440126       0.00000000
Si      -2.71567399      -0.00329058       2.71433261       0.00000000
