10
Lattice="16.28999089631971 0.0 0.0 0.0 16.28999089631971 0.0 0.0 0.0 34.32429715621058" Properties=species:S:1:pos:R:3:initial_magmoms:R:1 pbc="T T T"
Si       1.35720949      -1.35778779       1.35721779       0.00000000
Si      -1.35814525       1.35733167       1.35738941       0.00000000
Si       1.35724208       1.35736425      -1.35859076       0.00000000
Si      -1.35666581      -1.35902583      -1.35783563       0.00000000
Si      -0.00056363       2.71363707       2.71412667       0.00000000
Si       0.00073957      -2.71349046      -2.71429829       0.00000000
Si       2.71424795      -2.71441899       0.00013730       0.00000000
Si       2.71335200      -0.00156384      -2.71549964       0.00000000
Si       2.71450858       2.71494027       0.00024027       0.00000000
Si      -0.00100998      -2.71508688       2.71436694       0.00000000
