10
Lattice="16.28999089631971 0.0 0.0 0.0 16.28999089631971 0.0 0.0 0.0 34.32429715621058" Properties=species:S:1:pos:R:3:initial_magmoms:R:1 pbc="T T T"
Si      -0.43954492       1.92213855       1.34081077       0.00000000
Si      -1.84835855      -1.60943571      -0.12545538       0.00000000
Si      -0.67019178       0.96001857      -2.16243193       0.00000000
Si       2.16876263      -0.77993262       1.02269301       0.00000000
Si      -2.45266868      -0.79306236       2.01600440       0.00000000
Si       3.15152204       1.30574124       0.62442796       0.00000000
Si      -2.76752180       1.49911983       1.49705506       0.00000000
Si      -1.63113140      -0.81759510      -3.50797945       0.00000000
Si       2.82870311      -2.76739570       0.00521730       0.00000000
Si       0.70976507       2.11488183       3.39587624       0.00000000
