10
Lattice="10.86 0.0 0.0 0.0 10.86 0.0 0.0 0.0 10.86" Properties=species:S:1:pos:R:3:initial_magmoms:R:1 pbc="T T T"
Si      -1.34159010       1.38543192       1.11759174       0.00000000
Si       1.13233962       1.36963062      -1.35174420       0.00000000
Si      -1.38804918      -1.32282402      -1.27458390       0.00000000
Si      -0.15363642      -2.69412708       2.57781648       0.00000000
Si       2.63027028       0.00599472      -2.68009596       0.00000000
Si       2.63027028       2.72099472       0.03490404       0.00000000
Si      -0.08472972      -2.70900528      -2.68009596       0.00000000
Si      -0.08472972       2.72099472      -2.68009596       0.00000000
Si      -0.08472972       2.72099472       2.74990404       0.00000000
Si      -2.79972972       0.00599472      -2.68009596       0.00000000
