10
Lattice="10.86 0.0 0.0 0.0 10.86 0.0 0.0 0.0 10.86" Properties=species:S:1:pos:R:3:initial_magmoms:R:1 pbc="T T T"
Si      -1.13233962      -1.36963062       1.35174420       0.00000000
Si      -1.21706934       1.35136410      -1.32835176       0.00000000
Si       1.49793066      -1.36363590      -1.32835176       0.00000000
Si       1.49793066       1.35136410       1.38664824       0.00000000
Si      -2.47392972       0.01580130       2.46933594       0.00000000
Si      -2.52038880      -2.69245464       0.07716030       0.00000000
Si      -2.57456934      -0.00613590      -2.68585176       0.00000000
Si      -2.57456934       2.70886410       0.02914824       0.00000000
Si       0.14043066       2.70886410      -2.68585176       0.00000000
Si       0.14043066      -2.72113590      -2.68585176       0.00000000
