10
Lattice="10.86 0.0 0.0 0.0 10.86 0.0 0.0 0.0 10.86" Properties=species:S:1:pos:R:3:initial_magmoms:R:1 pbc="T T T"
Si      -1.22098980      -1.34067786       1.35716334       0.00000000
Si      -1.22098980       1.37432214      -1.35783666       0.00000000
Si       1.49401020      -1.34067786      -1.35783666       0.00000000
Si       2.76406548       2.48953554       0.09063756       0.00000000
Si      -2.57848980      -2.69817786      -0.00033666       0.00000000
Si      -2.52430926       2.76050340       0.04767540       0.00000000
Si      -2.57848980       0.01682214      -2.71533666       0.00000000
Si      -2.62477512      -0.14152752       2.67620808       0.00000000
Si       0.13651020      -2.69817786       2.71466334       0.00000000
Si       0.13651020      -2.69817786      -2.71533666       0.00000000
