10
Lattice="16.28999089631971 0.0 0.0 0.0 16.28999089631971 0.0 0.0 0.0 34.64500226677339" Properties=species:S:1:pos:R:3:initial_magmoms:R:1 pbc="T T T"
Si      -1.35658319      -1.35469411      -1.35805020       0.00000000
Si       1.35730561      -1.35736248       1.35683763       0.00000000
Si      -1.35765045       1.35733330       1.35680298       0.00000000
Si       1.35779431       1.35831070      -1.35787698       0.00000000
Si      -2.71251373       0.00150845       2.71384848       0.00000000
Si       0.00011729      -2.71313764       2.71447209       0.00000000
Si       2.71519114       2.71427401      -0.00041574       0.00000000
Si      -0.00287356       2.71345951      -2.71675866       0.00000000
Si      -2.71541335      -2.71481551       0.00024252       0.00000000
Si      -2.71542964       2.71507222      -0.00017323       0.00000000
