10
Lattice="16.28999089631971 0.0 0.0 0.0 16.28999089631971 0.0 0.0 0.0 34.64500226677339" Properties=species:S:1:pos:R:3:initial_magmoms:R:1 pbc="T T T"
Si      -1.60956670       0.48927408       1.73841790       0.00000000
Si       0.12262460       0.68611266      -2.31737085       0.00000000
Si      -0.48235667      -1.79186742      -1.63063723       0.00000000
Si       2.02967536       1.38515077       0.33297330       0.00000000
Si       0.00618694       1.41113495       3.17429610       0.00000000
Si      -2.85518155      -1.90115703      -0.58044269       0.00000000
Si       1.13385568       2.94851348       1.82335021       0.00000000
Si       1.86672649      -3.01141827       1.85222510       0.00000000
Si       2.06005621       3.33155654      -1.17748035       0.00000000
Si       2.22864142       0.26102349      -3.49564804       0.00000000
