10
Lattice="16.28999089631971 0.0 0.0 0.0 16.28999089631971 0.0 0.0 0.0 34.64500226677339" Properties=species:S:1:pos:R:3:initial_magmoms:R:1 pbc="T T T"
Si       1.35485559       1.35578249      -1.35638724       0.00000000
Si       1.35583299      -1.36069085       1.35683763       0.00000000
Si      -1.35944937       1.35296432       1.36106432       0.00000000
Si      -1.36010097      -1.35875039      -1.35659511       0.00000000
Si       2.71197549      -2.71335267       0.00079684       0.00000000
Si       2.71194291      -0.00126247      -2.71360596       0.00000000
Si      -0.00221544       2.71288610      -2.71384848       0.00000000
Si       2.71269225       2.71573685       0.00072755       0.00000000
Si      -0.00226431      -2.71687131      -2.71370990       0.00000000
Si      -2.71740658      -0.00138791      -2.71343274       0.00000000
