10
Lattice="16.28999089631971 0.0 0.0 0.0 16.28999089631971 0.0 0.0 0.0 34.64500226677339" Properties=species:S:1:pos:R:3:initial_magmoms:R:1 pbc="T T T"
Si      -1.33086042      -1.35078847       1.38025766       0.00000000
Si       1.35614250      -1.35266182      -1.35604079       0.00000000
Si      -1.35583299       1.36069085      -1.35683763       0.00000000
Si       1.35179307       1.34672543       1.37946083       0.00000000
Si      -2.55847482       0.09845059       2.80066890       0.00000000
Si      -0.00099369      -2.71328407      -2.71339809       0.00000000
Si       2.71397916       0.00166733      -2.71325951       0.00000000
Si      -2.71528236       2.71365517       0.00422669       0.00000000
Si      -2.71593396       0.00194046      -2.71343274       0.00000000
Si      -0.00097740       2.71647334      -2.71322487       0.00000000
