10
Lattice="16.28999089631971 0.0 0.0 0.0 16.28999089631971 0.0 0.0 0.0 34.64500226677339" Properties=species:S:1:pos:R:3:initial_magmoms:R:1 pbc="T T T"
Si       1.66262256       1.00566315       1.33267761       0.00000000
Si      -1.17061569      -1.74467203       1.23780915       0.00000000
Si      -1.97126919       1.46512260       0.07086411       0.00000000
Si       0.71302959      -0.13385493      -2.42005870       0.00000000
Si      -2.37749292       0.61595748      -2.19126297       0.00000000
Si       0.15755688       2.25135945       2.76184019       0.00000000
Si      -1.05546168       3.47794758       1.05454045       0.00000000
Si      -2.56863978      -0.47661282       2.77039751       0.00000000
Si       2.76612345       2.74695012      -0.16200012       0.00000000
Si      -1.13541300      -0.83057823      -3.75288732       0.00000000
