10
Lattice="16.28999089631971 0.0 0.0 0.0 16.28999089631971 0.0 0.0 0.0 34.64500226677339" Properties=species:S:1:pos:R:3:initial_magmoms:R:1 pbc="T T T"
Si      -0.91580751      -2.01282498      -0.98367635       0.00000000
Si       1.21301856      -1.22658813       1.70729974       0.00000000
Si       1.92437028       1.10364750      -1.19353628       0.00000000
Si      -1.50614082       1.48434480       1.67828453       0.00000000
Si      -1.39393530       0.94071492      -3.02556502       0.00000000
Si       2.71808424      -2.47228443       0.27813716       0.00000000
Si       1.05546168      -3.47794758      -1.05454045       0.00000000
Si      -2.84814360      -2.58844842       0.33373896       0.00000000
Si       2.64572406       2.91094155       0.24338474       0.00000000
Si       2.55257784       0.12667104       3.08732181       0.00000000
