10
Lattice="16.28999089631971 0.0 0.0 0.0 16.28999089631971 0.0 0.0 0.0 34.64500226677339" Properties=species:S:1:pos:R:3:initial_magmoms:R:1 pbc="T T T"
Si      -1.34579835      -1.33358085       1.38368752       0.00000000
Si      -1.35281934       1.35943308      -1.35753053       0.00000000
Si       1.36016613      -1.35395964      -1.35756517       0.00000000
Si       1.34356662       1.36528119       1.37977263       0.00000000
Si      -2.71339272       2.71083519       0.00481566       0.00000000
Si      -2.71282257       0.00109143      -2.71436815       0.00000000
Si       0.00232947      -2.71391400      -2.71467996       0.00000000
Si      -2.71197549      -2.71673217       0.00277160       0.00000000
Si       2.71665072      -2.71334385       0.00658255       0.00000000
Si       0.00254124       2.71570590      -2.71464531       0.00000000
