10
Lattice="16.28999089631971 0.0 0.0 0.0 16.28999089631971 0.0 0.0 0.0 34.64500226677339" Properties=species:S:1:pos:R:3:initial_magmoms:R:1 pbc="T T T"
Si      -1.27286706      -1.55520630       1.08917019       0.00000000
Si       1.14345211      -1.52134591      -1.35049759       0.00000000
Si      -1.56530514       1.20674691      -1.35004720       0.00000000
Si       1.86407285       0.81314793       1.65381475       0.00000000
Si      -1.36923870      -0.40640292       3.05544839       0.00000000
Si       2.49270394      -0.15754059      -2.71966884       0.00000000
Si      -0.22415320       2.56091832      -2.72036174       0.00000000
Si       2.69145824       2.67110388       0.26240139       0.00000000
Si       2.64951148      -2.77274517       0.07677337       0.00000000
Si      -2.77558698       2.72013678       0.01881225       0.00000000
