10
Lattice="16.28999089631971 0.0 0.0 0.0 16.28999089631971 0.0 0.0 0.0 34.64500226677339" Properties=species:S:1:pos:R:3:initial_magmoms:R:1 pbc="T T T"
Si      -1.34356662      -1.36528119      -1.37977263       0.00000000
Si       1.37463165       1.34827443      -1.37519949       0.00000000
Si       1.39657428      -1.29046122       1.41133425       0.00000000
Si      -1.18980531       1.55606967       1.43302203       0.00000000
Si       2.36346723       0.51963471       2.60551350       0.00000000
Si       0.84548358       2.43154314       2.78199524       0.00000000
Si      -2.68936497      -2.69886204       0.00391489       0.00000000
Si      -2.69726562       2.72837952      -0.00166296       0.00000000
Si      -2.69638596      -0.00584811      -2.73730316       0.00000000
Si       2.74136265      -2.70286938      -0.00083148       0.00000000
