10
Lattice="16.28999089631971 0.0 0.0 0.0 16.28999089631971 0.0 0.0 0.0 34.64500226677339" Properties=species:S:1:pos:R:3:initial_magmoms:R:1 pbc="T T T"
Si       1.55983266      -1.63620018      -0.58071985       0.00000000
Si      -1.68047640      -0.96153354       1.33040348       0.00000000
Si       0.59499225       1.75669731       1.46628125       0.00000000
Si       1.91286954       0.64299888      -2.43523322       0.00000000
Si       0.12611718       2.36426544      -2.20345802       0.00000000
Si      -3.52025271      -0.65998935      -0.21261650       0.00000000
Si       2.33561133       0.63542403       2.67844127       0.00000000
Si       3.50373465      -0.30978693      -0.95769233       0.00000000
Si       0.55646640       3.67332984      -0.04950774       0.00000000
Si       0.33909264      -2.98958967      -2.31307487       0.00000000
