10
Lattice="16.28999089631971 0.0 0.0 0.0 16.28999089631971 0.0 0.0 0.0 34.64500226677339" Properties=species:S:1:pos:R:3:initial_magmoms:R:1 pbc="T T T"
Si       1.68047640       0.96153354      -1.33040348       0.00000000
Si      -0.29579382      -2.31412482       0.35750198       0.00000000
Si      -1.83977631       0.30154419      -1.54301997       0.00000000
Si      -0.38779974       1.30693041       2.02074018       0.00000000
Si      -2.70720252       1.33033914       1.75757659       0.00000000
Si       2.27546865       2.71823085       0.13587777       0.00000000
Si      -2.66085747      -2.36051874       0.50522835       0.00000000
Si       0.74073888      -2.75108778       2.39144191       0.00000000
Si       0.45093978       3.41270613       1.45571452       0.00000000
Si      -2.52177345      -2.01811923      -1.96807974       0.00000000
