10
Lattice="16.28999089631971 0.0 0.0 0.0 16.28999089631971 0.0 0.0 0.0 34.64500226677339" Properties=species:S:1:pos:R:3:initial_magmoms:R:1 pbc="T T T"
Si       0.80322732       1.78054410      -1.44109432       0.00000000
Si       1.78675236      -1.72126656      -0.23177519       0.00000000
Si      -1.87672203      -0.96668118      -1.40883980       0.00000000
Si       0.43034922       1.30906440       2.15395028       0.00000000
Si      -0.12611718      -2.36426544       2.20345802       0.00000000
Si       2.11335057       0.37366002      -2.89805606       0.00000000
Si      -1.69108119       2.63013031       1.89009380       0.00000000
Si       0.46887507      -0.60756813       3.66973927       0.00000000
Si      -0.62366265      -2.36980404      -2.89081525       0.00000000
Si       3.59253144      -0.76455486      -1.41071064       0.00000000
