10
Lattice="16.28999089631971 0.0 0.0 0.0 16.28999089631971 0.0 0.0 0.0 34.64500226677339" Properties=species:S:1:pos:R:3:initial_magmoms:R:1 pbc="T T T"
Si      -1.97012889       0.65013390      -1.09727713       0.00000000
Si      -0.03930777      -2.33465022      -0.32077826       0.00000000
Si       0.41532984       0.56716893       2.30725451       0.00000000
Si       1.50535890       0.92312172      -1.64349054       0.00000000
Si       2.05799715      -2.89836567       0.54659451       0.00000000
Si       2.19087468       2.18897919       2.13867183       0.00000000
Si       0.28154007      -2.58610266      -2.72718681       0.00000000
Si       1.17755523      -0.50886702      -3.55205013       0.00000000
Si      -2.34326763       2.99226842      -0.81703355       0.00000000
Si       3.75245037       0.31649841      -1.13937083       0.00000000
