10
Lattice="16.28999089631971 0.0 0.0 0.0 16.28999089631971 0.0 0.0 0.0 34.64500226677339" Properties=species:S:1:pos:R:3:initial_magmoms:R:1 pbc="T T T"
Si       1.33252200       1.35956340       1.38174393       0.00000000
Si      -1.38526902      -1.35709221       1.38063529       0.00000000
Si      -1.22114727       1.47421242      -1.42757930       0.00000000
Si       1.61282403      -1.19272122      -1.39689767       0.00000000
Si       2.68947900       2.70343953       0.01321708       0.00000000
Si       2.69917155      -2.70403316       0.03687616       0.00000000
Si       2.69179218       0.00223173       2.74291219       0.00000000
Si      -2.73409731      -2.70121749      -0.01033115       0.00000000
Si      -2.72621295       2.71990872       0.00158328       0.00000000
Si      -0.02166570      -2.71305782       2.74163032       0.00000000
