10
Lattice="16.28999089631971 0.0 0.0 0.0 16.28999089631971 0.0 0.0 0.0 34.64500226677339" Properties=species:S:1:pos:R:3:initial_magmoms:R:1 pbc="T T T"
Si       1.34947989      -1.35658300       1.35846594       0.00000000
Si       1.35536058       1.35779431      -1.35725337       0.00000000
Si      -1.35935163      -1.35737009      -1.35725337       0.00000000
Si      -1.35998694       1.35800608       1.36404379       0.00000000
Si       0.01278765      -2.69430151       2.73078989       0.00000000
Si       2.71344159       0.00008634      -2.71450673       0.00000000
Si       2.71580364      -2.71259518       0.00031181       0.00000000
Si      -2.71718829      -2.71169923      -0.00003465       0.00000000
Si      -0.00234576       2.71566355      -2.71436815       0.00000000
Si      -0.00154755      -2.71539706      -2.71464531       0.00000000
