10
Lattice="16.28999089631971 0.0 0.0 0.0 16.28999089631971 0.0 0.0 0.0 34.64500226677339" Properties=species:S:1:pos:R:3:initial_magmoms:R:1 pbc="T T T"
Si       1.34175843       1.33978734      -1.37800574       0.00000000
Si      -1.36827855      -1.37575566      -1.37235860       0.00000000
Si       1.46526921      -1.16077653       1.46953788       0.00000000
Si      -1.34478837       1.41240816       1.41216573       0.00000000
Si      -0.42311646      -2.06145063       2.80933016       0.00000000
Si      -2.28029049      -0.38991744       2.65287324       0.00000000
Si       2.69672805      -2.71548598      -0.00107400       0.00000000
Si       2.71215468       2.71658556       0.00467708       0.00000000
Si      -0.00690696       2.69851995      -2.73702600       0.00000000
Si       2.70651834      -0.01599678      -2.73622916       0.00000000
