10
Lattice="16.28999089631971 0.0 0.0 0.0 16.28999089631971 0.0 0.0 0.0 34.64500226677339" Properties=species:S:1:pos:R:3:initial_magmoms:R:1 pbc="T T T"
Si       0.84030336      -1.96524515       1.00965987       0.00000000
Si      -2.35405161       0.07232760       0.28841981       0.00000000
Si       0.78613911       2.16005400       0.60091790       0.00000000
Si       0.27222219      -1.07440695      -2.26924892       0.00000000
Si      -1.58495184       0.59712624      -2.42570583       0.00000000
Si      -0.98316666      -3.50561519      -0.03218523       0.00000000
Si      -3.10459707      -2.18454927      -0.29604171       0.00000000
Si      -2.86677936      -0.38649654       2.61064096       0.00000000
Si       0.91064358      -1.68423613       3.41208425       0.00000000
Si       2.90967093      -2.65121868      -0.27452715       0.00000000
