10
Lattice="16.28999089631971 0.0 0.0 0.0 16.28999089631971 0.0 0.0 0.0 34.64500226677339" Properties=species:S:1:pos:R:3:initial_magmoms:R:1 pbc="T T T"
Si      -1.56494772      -1.74240772      -0.29375514       0.00000000
Si       0.86431482       0.07607430       2.22944179       0.00000000
Si       1.99407519      -0.85784769      -1.00837800       0.00000000
Si      -0.60890391       2.14985646      -0.93628171       0.00000000
Si       2.14529526       2.00394693       1.67377028       0.00000000
Si       3.29924628       1.06934076      -0.36273338       0.00000000
Si      -0.15871347      -3.44262176       0.67928494       0.00000000
Si      -1.63528794      -2.02341674      -2.69617952       0.00000000
Si       1.87957278      -3.31502219      -0.53013812       0.00000000
Si       1.82843847      -0.86581350      -3.32664962       0.00000000
