10
Lattice="16.28999089631971 0.0 0.0 0.0 16.28999089631971 0.0 0.0 0.0 34.64500226677339" Properties=species:S:1:pos:R:3:initial_magmoms:R:1 pbc="T T T"
Si       1.56494772       1.74240772       0.29375514       0.00000000
Si      -2.26300680       0.23284600       0.74500655       0.00000000
Si       1.40623425      -1.70021403       0.97304008       0.00000000
Si      -0.07034022      -0.28100902      -2.40242438       0.00000000
Si      -2.80386738      -2.03481063       1.34155917       0.00000000
Si       3.55902291       0.88456003      -0.71462286       0.00000000
Si       3.44452050      -1.57261446      -0.23638298       0.00000000
Si      -0.91064358       1.68423613      -3.41208425       0.00000000
Si       2.42926254       1.81848202       2.52319693       0.00000000
Si      -2.52809397       1.66144642       2.61019057       0.00000000
