10
Lattice="16.28999089631971 0.0 0.0 0.0 16.28999089631971 0.0 0.0 0.0 34.64500226677339" Properties=species:S:1:pos:R:3:initial_magmoms:R:1 pbc="T T T"
Si       1.10954448       1.45855773      -1.46493009       0.00000000
Si      -0.69175485       0.37582659       2.22639302       0.00000000
Si       1.64889009      -1.70623089      -0.09070067       0.00000000
Si      -2.34359343      -0.25819650      -0.95918207       0.00000000
Si       0.78959259      -0.20803959      -3.20154645       0.00000000
Si      -1.10530908      -1.56032136      -2.70075266       0.00000000
Si       3.15982017      -0.56324304       1.43406138       0.00000000
Si      -2.28455847      -1.35560493       2.53317469       0.00000000
Si       0.36790965      -3.63410352       0.46497084       0.00000000
Si      -1.40335092       2.63248029       2.24084000       0.00000000
