10
Lattice="16.28999089631971 0.0 0.0 0.0 16.28999089631971 0.0 0.0 0.0 34.64500226677339" Properties=species:S:1:pos:R:3:initial_magmoms:R:1 pbc="T T T"
Si       1.02512970      -0.41388003       2.07832020       0.00000000
Si       1.56976956       0.82621251      -1.55455677       0.00000000
Si      -1.08338274      -1.78251696      -1.36664217       0.00000000
Si      -1.30486158       1.73068218       1.25356082       0.00000000
Si      -0.45484938      -2.11390443       2.72500418       0.00000000
Si       0.12051342       2.06358462      -2.89175067       0.00000000
Si       2.73277782       2.40130890      -0.08536533       0.00000000
Si      -3.24876357       0.40426893       1.63053330       0.00000000
Si       2.99916819      -1.53254691       1.64809832       0.00000000
Si      -2.56396455      -0.65619378      -2.88759326       0.00000000
