10
Lattice="16.28999089631971 0.0 0.0 0.0 16.28999089631971 0.0 0.0 0.0 34.64500226677339" Properties=species:S:1:pos:R:3:initial_magmoms:R:1 pbc="T T T"
Si       1.77812192       0.29771604       1.50792457       0.00000000
Si       0.44216273      -2.00221109      -1.18018266       0.00000000
Si      -0.15191402       1.86823494      -1.47986210       0.00000000
Si      -2.13878319      -0.33109425       1.02476509       0.00000000
Si       3.44100512      -0.10225233      -0.20405918       0.00000000
Si      -0.42565118       0.68277906      -3.51487602       0.00000000
Si      -2.18678982       2.83613787      -0.64723829       0.00000000
Si      -3.59310552       0.84830175      -0.41393872       0.00000000
Si      -1.76070858       0.42782427       3.28098748       0.00000000
Si      -1.56634495      -2.92717358      -1.90350142       0.00000000
