10
Lattice="16.28999089631971 0.0 0.0 0.0 16.28999089631971 0.0 0.0 0.0 34.64500226677339" Properties=species:S:1:pos:R:3:initial_magmoms:R:1 pbc="T T T"
Si       2.10282723      -0.36515664       0.88469527       0.00000000
Si      -0.34629282       2.28607344       0.23607118       0.00000000
Si      -1.84982724      -1.40017437       0.28211441       0.00000000
Si       0.63206829      -0.25909245      -2.23633615       0.00000000
Si      -2.69446374      -0.92154159      -1.91365241       0.00000000
Si       1.48006053       3.05694882      -1.03536647       0.00000000
Si       2.90201463       1.97462493       0.55276132       0.00000000
Si      -1.31556411       0.35525232      -3.33091096       0.00000000
Si       2.85233013      -2.18999502      -0.42932111       0.00000000
Si       1.34366436      -2.51574615      -2.25078312       0.00000000
