10
Lattice="16.28999089631971 0.0 0.0 0.0 16.28999089631971 0.0 0.0 0.0 34.64500226677339" Properties=species:S:1:pos:R:3:initial_magmoms:R:1 pbc="T T T"
Si      -1.35296896       1.33699523       1.30637022       0.00000000
Si       1.12766873       1.53737852      -1.35094589       0.00000000
Si       1.36449275      -1.40351336       1.29189900       0.00000000
Si      -1.61575364      -0.92186087      -1.43587821       0.00000000
Si      -0.00618694      -1.41113495      -3.17429610       0.00000000
Si       2.02348841      -0.02598418      -2.84132280       0.00000000
Si      -2.61525917      -2.59778000      -0.08593005       0.00000000
Si      -3.27612818       0.92251247      -1.51757117       0.00000000
Si       0.00103930       2.67399698       2.65224963       0.00000000
Si      -2.58847841       2.76235394      -0.13291216       0.00000000
