10
Lattice="16.28999089631971 0.0 0.0 0.0 16.28999089631971 0.0 0.0 0.0 34.64500226677339" Properties=species:S:1:pos:R:3:initial_magmoms:R:1 pbc="T T T"
Si       0.93683790       1.75541759       1.18996260       0.00000000
Si      -0.46061604       0.14483439      -2.29263261       0.00000000
Si      -1.82529450      -0.94789881       1.19158053       0.00000000
Si       1.80695196      -1.83168018      -0.21805407       0.00000000
Si       2.02318542       0.24410565       2.62373643       0.00000000
Si      -2.73456972      -1.09217934      -1.96544503       0.00000000
Si      -0.69090777      -2.46738114       2.60579031       0.00000000
Si       2.80754892       2.55462128      -0.20031582       0.00000000
Si       3.46841793      -0.96567120       1.23132530       0.00000000
Si      -2.68381008      -2.74545144      -0.19834106       0.00000000
