10
Lattice="16.28999089631971 0.0 0.0 0.0 16.28999089631971 0.0 0.0 0.0 34.64500226677339" Properties=species:S:1:pos:R:3:initial_magmoms:R:1 pbc="T T T"
Si       1.34985456      -1.35547461       1.35708014       0.00000000
Si       1.35493704       1.35731538      -1.35690692       0.00000000
Si      -1.35967743      -1.35757602      -1.35704550       0.00000000
Si      -1.35837423       1.35498591       1.36286586       0.00000000
Si       2.71194291       0.00026064      -2.71422957       0.00000000
Si       2.71518462      -2.71248048       0.00020787       0.00000000
Si      -0.00218286       2.71406061      -2.71447209       0.00000000
Si      -0.00249237      -2.71526607      -2.71467996       0.00000000
Si      -2.71720458      -2.71375110       0.00034645       0.00000000
Si       2.70179424       0.02034621       2.72947338       0.00000000
