10
Lattice="16.28999089631971 0.0 0.0 0.0 16.28999089631971 0.0 0.0 0.0 34.64500226677339" Properties=species:S:1:pos:R:3:initial_magmoms:R:1 pbc="T T T"
Si      -1.80577908      -0.95671170       1.17893544       0.00000000
Si      -1.47918087       1.13821488      -1.48734542       0.00000000
Si       1.21046103      -1.57659507      -1.48883516       0.00000000
Si       1.43104392       1.30795668       1.56952341       0.00000000
Si      -0.21491397      -1.90949751       2.65647632       0.00000000
Si       2.59936272       2.52013632      -0.11055226       0.00000000
Si      -2.78930412       2.54509896      -0.03038368       0.00000000
Si      -0.14248863       2.47593339      -2.85966938       0.00000000
Si       2.57873958      -0.24096168      -2.85918434       0.00000000
Si       2.65971717      -2.81396718      -0.15164126       0.00000000
