10
Lattice="16.28999089631971 0.0 0.0 0.0 16.28999089631971 0.0 0.0 0.0 34.64500226677339" Properties=species:S:1:pos:R:3:initial_magmoms:R:1 pbc="T T T"
Si       0.69628347       0.98363907       1.99766659       0.00000000
Si      -1.74061908       1.12127328      -1.21216002       0.00000000
Si       1.94647581       0.25888068      -1.39200232       0.00000000
Si       0.13787856      -2.41316802       0.37115212       0.00000000
Si       2.42748693      -2.32345899       0.95533647       0.00000000
Si       2.41427574      -0.53991576       2.60790400       0.00000000
Si      -2.33561133      -0.63542403      -2.67844127       0.00000000
Si       3.44836494      -1.50689016      -0.98066198       0.00000000
Si       1.52089956       3.15907083       1.68936054       0.00000000
Si      -1.08613575       1.58902434       3.38914924       0.00000000
