10
Lattice="16.28999089631971 0.0 0.0 0.0 16.28999089631971 0.0 0.0 0.0 34.64500226677339" Properties=species:S:1:pos:R:3:initial_magmoms:R:1 pbc="T T T"
Si      -2.24709147       0.60662331      -0.50411971       0.00000000
Si       0.35657181       1.43629486       1.88184828       0.00000000
Si       1.15543341       0.67191363      -1.99759730       0.00000000
Si       0.13190013      -2.44398870       0.41452768       0.00000000
Si       3.45141117      -1.06746741      -0.11231916       0.00000000
Si      -2.57489514      -0.82536543      -2.41267931       0.00000000
Si       2.47083462      -1.25304309      -2.42549796       0.00000000
Si       1.92754683       0.20878893       3.18664909       0.00000000
Si      -3.75245037      -0.31649841       1.13937083       0.00000000
Si       0.96405849       3.66414947       1.09602990       0.00000000
