10
Lattice="16.28999089631971 0.0 0.0 0.0 16.28999089631971 0.0 0.0 0.0 34.64500226677339" Properties=species:S:1:pos:R:3:initial_magmoms:R:1 pbc="T T T"
Si       2.02245237       0.16667928      -1.05882115       0.00000000
Si       0.16563672       0.00796581       2.31827162       0.00000000
Si      -1.39435884      -1.84357677      -0.65371691       0.00000000
Si       0.80120736       2.19388833      -0.99431212       0.00000000
Si      -0.22190238      -3.48808715       0.70513013       0.00000000
Si       1.41226155       3.27196053       1.01298579       0.00000000
Si      -3.46372641      -1.15760324       0.63047010       0.00000000
Si       0.05113431      -2.44920869       2.79651150       0.00000000
Si      -0.99139311       2.40937245      -2.68162861       0.00000000
Si       2.11882401      -0.98212410      -3.02509935       0.00000000
