10
Lattice="16.28999089631971 0.0 0.0 0.0 16.28999089631971 0.0 0.0 0.0 34.64500226677339" Properties=species:S:1:pos:R:3:initial_magmoms:R:1 pbc="T T T"
Si      -1.45432233       1.17939600      -1.43870381       0.00000000
Si      -0.68716107      -2.24144603       0.34707383       0.00000000
Si       2.13878319       0.33109425      -1.02476509       0.00000000
Si       0.37807461       0.75891852       2.25622239       0.00000000
Si      -0.04800663       3.16723212      -1.67200339       0.00000000
Si       2.58094592      -1.67111684      -2.20494776       0.00000000
Si      -2.68693776      -2.23813916       1.63548754       0.00000000
Si      -3.65042610       1.21722138      -0.45513165       0.00000000
Si       2.04377013      -0.74980915       3.20632746       0.00000000
Si       1.98686916       2.19932919      -2.50462719       0.00000000
