10
Lattice="16.28999089631971 0.0 0.0 0.0 16.28999089631971 0.0 0.0 0.0 34.64500226677339" Properties=species:S:1:pos:R:3:initial_magmoms:R:1 pbc="T T T"
Si       1.61575364       0.92186087       1.43587821       0.00000000
Si      -0.99950553      -1.67591913       1.34994816       0.00000000
Si       1.60956670      -0.48927408      -1.73841790       0.00000000
Si      -1.66037454       1.84437335      -0.08169296       0.00000000
Si      -1.24561485      -2.39043111      -2.31886059       0.00000000
Si       0.26278468       2.25885611       2.74224843       0.00000000
Si      -2.66097150      -2.54192811      -0.09943121       0.00000000
Si       2.74342238       2.45923940       0.08493231       0.00000000
Si      -2.44473804      -0.46614228       2.74235929       0.00000000
Si      -3.53108556       1.04516966       1.30858547       0.00000000
