10
Lattice="16.28999089631971 0.0 0.0 0.0 16.28999089631971 0.0 0.0 0.0 34.64500226677339" Properties=species:S:1:pos:R:3:initial_magmoms:R:1 pbc="T T T"
Si       1.25201682       1.98317718       0.05155179       0.00000000
Si      -0.61105419      -1.07807220      -2.00729791       0.00000000
Si       0.05854626      -1.33680627       1.95093046       0.00000000
Si      -1.95470226       1.09599120       0.87658834       0.00000000
Si       0.70700229       2.79393048       2.26585370       0.00000000
Si       0.55184004       3.07371123      -1.93800786       0.00000000
Si      -1.41226155      -3.27196053      -1.01298579       0.00000000
Si       2.37676054      -1.75560588       2.27257484       0.00000000
Si      -1.24662483      -3.26399472       1.30528583       0.00000000
Si       3.47904620       1.31227353       0.51260774       0.00000000
