10
Lattice="16.28999089631971 0.0 0.0 0.0 16.28999089631971 0.0 0.0 0.0 34.64500226677339" Properties=species:S:1:pos:R:3:initial_magmoms:R:1 pbc="T T T"
Si      -1.35631029      -1.35625653       1.35846594       0.00000000
Si      -1.35774381       1.35798327      -1.35780769       0.00000000
Si       1.35808101      -1.35790182      -1.35777304       0.00000000
Si       1.36000323       1.35834165       1.35683763       0.00000000
Si       2.71282257      -0.00109143       2.71436815       0.00000000
Si      -2.71347654       0.00109143      -2.71436815       0.00000000
Si      -0.00057015       2.70974376       2.71918381       0.00000000
Si       0.00068418      -2.71386513      -2.71523428       0.00000000
Si      -2.71476057      -2.71484253      -0.00055432       0.00000000
Si       2.71536381       2.71461447      -0.00027716       0.00000000
