10
Lattice="16.28999089631971 0.0 0.0 0.0 16.28999089631971 0.0 0.0 0.0 34.64500226677339" Properties=species:S:1:pos:R:3:initial_magmoms:R:1 pbc="T T T"
Si      -0.82134180      -1.72858077       1.40554995       0.00000000
Si       1.80816786       1.05472863       1.28253934       0.00000000
Si      -1.78825104       1.78013862      -0.02099488       0.00000000
Si       0.60964740      -0.34622766      -2.55247197       0.00000000
Si       2.74425317      -0.73309887      -1.73481481       0.00000000
Si      -0.45701595       1.75415607      -2.95560144       0.00000000
Si       0.41791995       2.26398420       2.80892277       0.00000000
Si      -2.30304762      -0.47146518       2.82128412       0.00000000
Si      -0.77954166       3.59598492       1.17077104       0.00000000
Si      -1.50899157      -3.56842224       0.02089095       0.00000000
