10
Lattice="16.28999089631971 0.0 0.0 0.0 16.28999089631971 0.0 0.0 0.0 34.64500226677339" Properties=species:S:1:pos:R:3:initial_magmoms:R:1 pbc="T T T"
Si      -1.35493704      -1.35464382       1.35725337       0.00000000
Si       1.35720135       1.35782037       1.35756517       0.00000000
Si       1.35775521      -1.35777150      -1.35753053       0.00000000
Si      -1.35817875       1.35809730      -1.35718408       0.00000000
Si       0.00097740      -2.71339272      -2.71332880       0.00000000
Si      -2.71301805       0.00182448      -2.71381383       0.00000000
Si       2.71314663       0.00252495       2.71530357       0.00000000
Si       2.71450076      -2.71503801      -0.00079684       0.00000000
Si       2.71485357       2.71489140      -0.00006929       0.00000000
Si      -0.00004887       2.71381626       2.71616970       0.00000000
