10
Lattice="16.28999089631971 0.0 0.0 0.0 16.28999089631971 0.0 0.0 0.0 34.64500226677339" Properties=species:S:1:pos:R:3:initial_magmoms:R:1 pbc="T T T"
Si      -1.97403849       1.11866688       0.43022188       0.00000000
Si       0.70017678      -1.09053405       1.98955966       0.00000000
Si       0.80466084       2.21151411      -0.53235540       0.00000000
Si       0.08016309      -1.72245573      -1.69331008       0.00000000
Si       2.59519152       1.14430734      -1.68402521       0.00000000
Si       1.33974761      -0.32721723      -3.15931417       0.00000000
Si      -3.45401757      -0.58135752       1.07690585       0.00000000
Si      -0.55184004      -3.07371123       1.93800786       0.00000000
Si      -2.99916819       1.53254691      -1.64809832       0.00000000
Si      -2.02378815       2.70154989       2.26093411       0.00000000
