10
Lattice="16.28999089631971 0.0 0.0 0.0 16.28999089631971 0.0 0.0 0.0 34.64500226677339" Properties=species:S:1:pos:R:3:initial_magmoms:R:1 pbc="T T T"
Si      -1.44523251       1.20977685       1.39241114       0.00000000
Si      -1.66146597      -0.86600898      -1.44937937       0.00000000
Si       0.99950553       1.67591913      -1.34994816       0.00000000
Si       1.26734571      -1.51314552       1.35250353       0.00000000
Si       2.61525917       2.59778000       0.08593005       0.00000000
Si      -2.53158003       2.72108879      -0.04136269       0.00000000
Si      -0.24610932      -0.71451198      -3.66880875       0.00000000
Si      -0.09984141       2.55947407       2.74209457       0.00000000
Si       2.62090529      -0.15920217       2.73641278       0.00000000
Si      -3.46841793       0.96567120      -1.23132530       0.00000000
