10
Lattice="16.28999089631971 0.0 0.0 0.0 16.28999089631971 0.0 0.0 0.0 34.64500226677339" Properties=species:S:1:pos:R:3:initial_magmoms:R:1 pbc="T T T"
Si      -0.27303669      -1.03887846      -2.09138138       0.00000000
Si      -2.03828625      -0.12759957       1.20942306       0.00000000
Si       1.39253436      -1.84678101       0.73218789       0.00000000
Si       0.11450241       2.45717450      -0.47823988       0.00000000
Si       3.26867616      -0.50117814       0.39443357       0.00000000
Si      -0.91499301      -0.20036700       3.32429376       0.00000000
Si       0.40040820      -2.12532372       2.89639310       0.00000000
Si       2.67051744       0.80123247       2.37789570       0.00000000
Si      -0.05113431       2.44920869      -2.79651150       0.00000000
Si       0.57997287       1.65608280       3.33804783       0.00000000
