10
Lattice="16.28999089631971 0.0 0.0 0.0 16.28999089631971 0.0 0.0 0.0 34.64500226677339" Properties=species:S:1:pos:R:3:initial_magmoms:R:1 pbc="T T T"
Si       1.34479651       1.35324288      -1.39009685       0.00000000
Si      -1.37064340      -1.35586557      -1.39283380       0.00000000
Si      -1.23433207       1.52858844       1.35746124       0.00000000
Si       1.54496804      -1.24568001       1.58992933       0.00000000
Si      -2.49391659       0.13334994       2.82346533       0.00000000
Si       2.71239088      -2.69117316      -0.01122499       0.00000000
Si      -2.71179534      -2.71003698      -0.02251926       0.00000000
Si       2.70449023       2.73606840      -0.01680284       0.00000000
Si      -2.72627715       2.72078838      -0.02982936       0.00000000
Si       2.70536989       0.00184077      -2.75244303       0.00000000
