10
Lattice="16.28999089631971 0.0 0.0 0.0 16.28999089631971 0.0 0.0 0.0 34.64500226677339" Properties=species:S:1:pos:R:3:initial_magmoms:R:1 pbc="T T T"
Si       2.30323400       0.46584513       0.31429964       0.00000000
Si      -1.18265400      -0.31503231       2.03418244       0.00000000
Si      -1.20993975       1.91400984      -0.71975032       0.00000000
Si      -0.32278635      -1.69148844      -1.68246619       0.00000000
Si      -1.39383756       0.03085326      -2.88357444       0.00000000
Si       0.50919675       3.44105073       0.55792343       0.00000000
Si      -3.15123534      -1.20145266       1.11082333       0.00000000
Si       2.60551124       2.68504812      -0.27338387       0.00000000
Si      -0.13523958      -2.01649023       3.28244257       0.00000000
Si       2.96710037       0.03881907       2.50102411       0.00000000
