10
Lattice="16.28999089631971 0.0 0.0 0.0 16.28999089631971 0.0 0.0 0.0 34.64500226677339" Properties=species:S:1:pos:R:3:initial_magmoms:R:1 pbc="T T T"
Si       0.31517892      -1.51493742      -1.75050901       0.00000000
Si       1.56475224      -0.79210125       1.62336178       0.00000000
Si       0.68887152       2.22016410      -0.56651539       0.00000000
Si      -2.27396997      -0.76670514       0.18787995       0.00000000
Si       1.10820870       2.84446206       1.67609150       0.00000000
Si      -1.66561992      -2.75186970       1.43322990       0.00000000
Si      -1.10677518      -0.43261353      -3.33863680       0.00000000
Si      -0.07727976      -2.04486741       3.02340175       0.00000000
Si      -2.93312853      -1.20348891      -2.06719915       0.00000000
Si       2.44177326       1.12122441       2.74125269       0.00000000
