10
Lattice="16.28999089631971 0.0 0.0 0.0 16.28999089631971 0.0 0.0 0.0 34.64500226677339" Properties=species:S:1:pos:R:3:initial_magmoms:R:1 pbc="T T T"
Si       0.68716107       2.24144603      -0.34707383       0.00000000
Si      -1.99977669       0.00330687       1.28841371       0.00000000
Si      -0.47591235      -1.27294947      -2.01055454       0.00000000
Si       1.83067739      -1.17304290       1.10857140       0.00000000
Si       1.25959930      -0.35463330      -3.27534034       0.00000000
Si      -0.37426275      -3.45377322      -1.07316419       0.00000000
Si       1.35888690      -3.39680709       0.44841051       0.00000000
Si       1.06523568       3.00036455       1.90914856       0.00000000
Si      -3.57075171       1.23081280      -0.01638710       0.00000000
Si      -1.58043951       0.62760483       3.53102060       0.00000000
