10
Lattice="16.28999089631971 0.0 0.0 0.0 16.28999089631971 0.0 0.0 0.0 34.64500226677339" Properties=species:S:1:pos:R:3:initial_magmoms:R:1 pbc="T T T"
Si      -2.21157764       0.23408730      -0.73076744       0.00000000
Si       0.91184904       2.12947767       0.49247898       0.00000000
Si      -0.27644130      -1.06104915       2.15599434       0.00000000
Si       1.74115665      -0.74911194      -1.51457641       0.00000000
Si       2.47283829       1.28997252       2.05684029       0.00000000
Si       1.02697047      -2.99708307       1.85801251       0.00000000
Si       0.95303016       0.34766118       3.55457922       0.00000000
Si      -2.10351141       1.19006595      -2.88090677       0.00000000
Si      -3.20579707      -1.87781346      -1.12093967       0.00000000
Si       2.51177139       2.81189835      -1.04652217       0.00000000
