10
Lattice="16.28999089631971 0.0 0.0 0.0 16.28999089631971 0.0 0.0 0.0 34.64500226677339" Properties=species:S:1:pos:R:3:initial_magmoms:R:1 pbc="T T T"
Si       1.35606105      -1.35661232       1.35884704       0.00000000
Si      -1.35966114       1.35805820       1.35777304       0.00000000
Si       1.35654975       1.34717648      -1.37361275       0.00000000
Si      -1.35687555      -1.36430333      -1.36145927       0.00000000
Si      -2.72136830       0.03921003      -2.65335827       0.00000000
Si       0.05550003      -2.62226387      -2.77894994       0.00000000
Si       2.71189404      -0.00012706       2.71547680       0.00000000
Si       2.71119357       2.71685597       0.00065826       0.00000000
Si      -0.00226431       2.71402151       2.71523428       0.00000000
Si       2.71021617      -2.72067176      -0.00006929       0.00000000
