10
Lattice="16.28999089631971 0.0 0.0 0.0 16.28999089631971 0.0 0.0 0.0 34.64500226677339" Properties=species:S:1:pos:R:3:initial_magmoms:R:1 pbc="T T T"
Si       2.13460576      -0.38687121       0.81765716       0.00000000
Si      -1.06666335       2.10038373      -0.40312947       0.00000000
Si       0.41074909      -1.08856296      -2.30219633       0.00000000
Si      -0.60964740       0.34622766       2.55247197       0.00000000
Si       2.94068383       2.03170509       0.37028599       0.00000000
Si      -3.16892043       1.41082803      -1.28692397       0.00000000
Si       3.21135847      -2.22428547      -0.26084237       0.00000000
Si      -0.08250429       3.35411100      -2.16548708       0.00000000
Si      -2.39789844       2.12636628       2.53147709       0.00000000
Si      -0.39176865      -3.36100167      -2.35083794       0.00000000
