10
Lattice="16.28999089631971 0.0 0.0 0.0 16.28999089631971 0.0 0.0 0.0 34.64500226677339" Properties=species:S:1:pos:R:3:initial_magmoms:R:1 pbc="T T T"
Si      -1.53129258       1.45582101       1.11387209       0.00000000
Si      -0.01534518       1.14069096      -2.11192587       0.00000000
Si       1.83977631      -0.30154419       1.54301997       0.00000000
Si      -0.68199714      -2.31966342      -0.42505977       0.00000000
Si      -0.82108116      -2.66206293       2.04824832       0.00000000
Si      -0.86742621       1.02879495       3.30059657       0.00000000
Si       1.54398249      -2.61566901       1.90052195       0.00000000
Si      -2.36678224      -1.76871933      -2.03456354       0.00000000
Si       3.52025271       0.65998935       0.21261650       0.00000000
Si      -0.98362278      -0.55187262      -3.47908772       0.00000000
