10
Lattice="16.28999089631971 0.0 0.0 0.0 16.28999089631971 0.0 0.0 0.0 34.64500226677339" Properties=species:S:1:pos:R:3:initial_magmoms:R:1 pbc="T T T"
Si      -1.38315947      -1.21684671       1.44452418       0.00000000
Si      -1.41598870       1.21684671      -1.41594203       0.00000000
Si       0.96827760       1.69256358       1.36716184       0.00000000
Si       1.30021893      -1.48089132      -1.40502885       0.00000000
Si       0.30162564      -1.76779080       3.05402795       0.00000000
Si       0.98362278       0.55187262       3.47908772       0.00000000
Si      -2.58871395       2.66688477       0.06568696       0.00000000
Si      -2.63860338      -2.68837128      -0.03076478       0.00000000
Si      -0.06291198       2.57181633      -2.77915434       0.00000000
Si       2.75327064       2.60944623       0.07940639       0.00000000
