10
Lattice="16.28999089631971 0.0 0.0 0.0 16.28999089631971 0.0 0.0 0.0 34.64500226677339" Properties=species:S:1:pos:R:3:initial_magmoms:R:1 pbc="T T T"
Si      -1.35718832      -1.35577515       1.35763446       0.00000000
Si      -1.35730561       1.35736248      -1.35683763       0.00000000
Si       1.35783666      -1.35812091      -1.35711479       0.00000000
Si       1.36010097       1.35875039       1.35659511       0.00000000
Si      -2.71388880       0.00266838      -2.71488783       0.00000000
Si       0.00143352      -2.71397019      -2.71488783       0.00000000
Si       2.71593396      -0.00194046       2.71343274       0.00000000
Si       0.00065160       2.71171471       2.71765943       0.00000000
Si       2.71495656       2.71453288       0.00020787       0.00000000
Si      -2.71495605       2.71469578      -0.00003465       0.00000000
