10
Lattice="16.28999089631971 0.0 0.0 0.0 16.28999089631971 0.0 0.0 0.0 34.61538196595647" Properties=species:S:1:pos:R:3:initial_magmoms:R:1 pbc="T T T"
Si      -1.54652929      -1.60653609       0.61366183       0.00000000
Si      -0.88632098       2.03514947      -0.72062342       0.00000000
Si       1.10252512       0.17049114       2.12985103       0.00000000
Si       0.95839120      -0.61454025      -2.16176643       0.00000000
Si       1.18472446       3.09504203      -1.12967362       0.00000000
Si       2.72484622      -1.50154704       1.78837009       0.00000000
Si       2.25479827       1.34304275      -2.45599734       0.00000000
Si      -0.15362610      -3.60901692       0.44556945       0.00000000
Si      -2.18382667      -0.99030168       2.82146675       0.00000000
Si      -3.41004013      -1.37499003      -0.83959656       0.00000000
