10
Lattice="16.28999089631971 0.0 0.0 0.0 16.28999089631971 0.0 0.0 0.0 34.61538196595647" Properties=species:S:1:pos:R:3:initial_magmoms:R:1 pbc="T T T"
Si       1.33555194       1.35449721       1.37087374       0.00000000
Si      -1.36020034       1.35307998      -1.36166604       0.00000000
Si       1.35537687      -1.36203296      -1.36104296       0.00000000
Si      -1.36200201      -1.36980818       1.38312759       0.00000000
Si       2.56156992      -0.12994533       2.75458979       0.00000000
Si       2.71783989       2.70736542      -0.00152308       0.00000000
Si       2.71155195      -2.71688597      -0.00051923       0.00000000
Si      -0.00162900       2.71078632      -2.71775900       0.00000000
Si      -2.72016026       2.71073745       0.00034615       0.00000000
Si       2.71342530      -0.00340461      -2.71789746       0.00000000
