10
Lattice="16.28999089631971 0.0 0.0 0.0 16.28999089631971 0.0 0.0 0.0 34.61538196595647" Properties=species:S:1:pos:R:3:initial_magmoms:R:1 pbc="T T T"
Si       1.35298224       1.34198649      -1.35279758       0.00000000
Si      -1.35707103       1.35457866       1.35533142       0.00000000
Si       1.35415512      -1.35949824       1.35380835       0.00000000
Si      -1.35009891      -1.36313091      -1.35761258       0.00000000
Si      -0.14424795       2.52662787      -2.70725669       0.00000000
Si       2.59748937      -0.04127886      -2.75963672       0.00000000
Si       2.71318095      -0.00114030       2.71114746       0.00000000
Si      -0.00029322       2.71270854       2.71170131       0.00000000
Si      -2.71378368       2.71132389      -0.00585000       0.00000000
Si      -2.71552671      -0.00171045       2.71149362       0.00000000
