10
Lattice="16.28999089631971 0.0 0.0 0.0 16.28999089631971 0.0 0.0 0.0 34.61538196595647" Properties=species:S:1:pos:R:3:initial_magmoms:R:1 pbc="T T T"
Si      -1.49130063       1.13829633      -1.40967414       0.00000000
Si       1.30614849      -1.29530261      -1.46022994       0.00000000
Si      -1.36223496      -1.35568801       1.35141642       0.00000000
Si       1.35009891       1.36313091       1.35761258       0.00000000
Si      -0.45484938      -2.34561339      -2.55610023       0.00000000
Si       0.01817964       2.26215972      -2.76167006       0.00000000
Si      -2.25163638      -0.67408020      -2.71377716       0.00000000
Si       2.70308115       2.70511740       0.00481500       0.00000000
Si       2.70459612      -2.70365849      -0.03595502       0.00000000
Si       2.70425403       0.00363267       2.71142092       0.00000000
