10
Lattice="16.28999089631971 0.0 0.0 0.0 16.28999089631971 0.0 0.0 0.0 34.61538196595647" Properties=species:S:1:pos:R:3:initial_magmoms:R:1 pbc="T T T"
Si      -1.35277047       1.35553373      -1.36052373       0.00000000
Si      -1.35606105      -1.35788084       1.35726989       0.00000000
Si       1.35900954       1.35761233       1.35699296       0.00000000
Si       1.35967743      -1.35771794      -1.36201220       0.00000000
Si       0.00946449       2.71122174      -2.71194015       0.00000000
Si      -2.71326240       2.71438200      -0.00041538       0.00000000
Si      -2.71347417      -0.00005578       2.71419362       0.00000000
Si       2.71371852       2.71485441      -0.00051923       0.00000000
Si      -2.71502172      -2.71441430      -0.00065769       0.00000000
Si       0.00102627      -2.71491929       2.71467823       0.00000000
