10
Lattice="16.28999089631971 0.0 0.0 0.0 16.28999089631971 0.0 0.0 0.0 34.61538196595647" Properties=species:S:1:pos:R:3:initial_magmoms:R:1 pbc="T T T"
Si      -1.35720135      -1.35660764      -1.35733912       0.00000000
Si       1.35617508      -1.35485300       1.36052373       0.00000000
Si       1.35804843       1.35862835      -1.35685450       0.00000000
Si      -1.35537687       1.36203296       1.36104296       0.00000000
Si      -0.01568727      -2.70420257       2.72056285       0.00000000
Si       2.71357191      -2.71453043       0.00003462       0.00000000
Si      -2.71424795      -2.71417205      -0.00045000       0.00000000
Si       0.00021177      -2.71443269      -2.71426285       0.00000000
Si      -2.71507548       0.00082427      -2.71450516       0.00000000
Si       2.71528236       0.00106048      -2.71453977       0.00000000
