10
Lattice="16.28999089631971 0.0 0.0 0.0 16.28999089631971 0.0 0.0 0.0 34.61538196595647" Properties=species:S:1:pos:R:3:initial_magmoms:R:1 pbc="T T T"
Si      -0.75940722       1.25586126       1.77909317       0.00000000
Si      -0.06859719       1.08708057      -2.06501638       0.00000000
Si      -1.90114074      -1.41454215      -0.21513472       0.00000000
Si       2.11973625      -0.99859329       0.72917343       0.00000000
Si       2.27941083       1.05265980      -2.01877020       0.00000000
Si       0.18779112      -0.26114499       3.39071702       0.00000000
Si       2.40907923       0.16001667       2.77937442       0.00000000
Si       1.39724217      -3.04661281       1.55031998       0.00000000
Si      -1.44231660      -2.39945510      -2.43235502       0.00000000
Si      -2.40762942      -2.03134019       2.13286257       0.00000000
