10
Lattice="16.28999089631971 0.0 0.0 0.0 16.28999089631971 0.0 0.0 0.0 34.61538196595647" Properties=species:S:1:pos:R:3:initial_magmoms:R:1 pbc="T T T"
Si      -0.62473779      -1.03242762      -2.06380484       0.00000000
Si       2.00938779      -0.81568917       1.05026589       0.00000000
Si       0.34042842       2.32492509      -0.62567338       0.00000000
Si      -1.75611087      -0.54016011       1.59950846       0.00000000
Si       2.44281582       2.47735062       0.36328864       0.00000000
Si      -2.92410387      -0.70351623      -1.79962010       0.00000000
Si       2.58826923       1.16769978       2.27689725       0.00000000
Si      -3.12582294      -1.91084144       0.25075397       0.00000000
Si       1.13948550      -2.61386896       2.37098191       0.00000000
Si      -0.09352089       0.52129629      -3.71748641       0.00000000
