10
Lattice="16.28999089631971 0.0 0.0 0.0 16.28999089631971 0.0 0.0 0.0 34.61538196595647" Properties=species:S:1:pos:R:3:initial_magmoms:R:1 pbc="T T T"
Si      -0.02464677       1.57881051      -1.74980854       0.00000000
Si       1.63139463      -1.79926308       0.16321162       0.00000000
Si      -2.25756594      -1.11505050      -0.06320772       0.00000000
Si       1.51505145       0.76079187       2.05359330       0.00000000
Si      -1.39370724      -1.87831845       2.02261251       0.00000000
Si      -0.20603592      -0.25071939       3.43463847       0.00000000
Si       1.93368816       2.79731880      -1.56060075       0.00000000
Si      -0.74215611       0.45238959      -3.66798638       0.00000000
Si       0.37470258      -3.50173098       1.43515454       0.00000000
Si      -1.76736726       3.14317179      -1.39725067       0.00000000
