10
Lattice="16.28999089631971 0.0 0.0 0.0 16.28999089631971 0.0 0.0 0.0 34.61538196595647" Properties=species:S:1:pos:R:3:initial_magmoms:R:1 pbc="T T T"
Si       1.32470280       1.35153243      -1.38822298       0.00000000
Si      -1.36168110       1.35338949       1.36048912       0.00000000
Si       1.35233064      -1.36270737       1.36055835       0.00000000
Si      -1.36244673      -1.36625859      -1.36670258       0.00000000
Si       2.70974376      -2.71472850       0.00218077       0.00000000
Si       2.71217097       2.71251306      -0.00249231       0.00000000
Si       2.71134018      -0.00351864       2.71748208       0.00000000
Si      -0.00376299       2.71164969       2.71734362       0.00000000
Si      -2.72041371       2.70987408      -0.00027692       0.00000000
Si      -0.00329058      -2.71891503       2.71796670       0.00000000
