10
Lattice="16.28999089631971 0.0 0.0 0.0 16.28999089631971 0.0 0.0 0.0 34.61538196595647" Properties=species:S:1:pos:R:3:initial_magmoms:R:1 pbc="T T T"
Si      -1.34822556       1.34811153      -1.37547759       0.00000000
Si       1.39958793      -1.35200484      -1.39313144       0.00000000
Si      -0.81598239      -1.88367786       1.25103522       0.00000000
Si       1.25375985       1.44493929       1.52408150       0.00000000
Si       2.56145589      -0.41876703       2.29662803       0.00000000
Si       1.12510143      -3.37141098       1.27986985       0.00000000
Si      -2.67950952      -0.01848915      -2.74908594       0.00000000
Si       0.03416013       2.69822673      -2.74482825       0.00000000
Si       2.88684864      -2.54961306      -0.02104616       0.00000000
Si       0.03378546      -2.73696435      -2.75008979       0.00000000
