10
Lattice="16.28999089631971 0.0 0.0 0.0 16.28999089631971 0.0 0.0 0.0 34.61538196595647" Properties=species:S:1:pos:R:3:initial_magmoms:R:1 pbc="T T T"
Si      -2.30956362      -0.12647556       0.26387320       0.00000000
Si       1.07256618       1.63815498       1.27571600       0.00000000
Si       0.56943324      -2.23510203       0.48073869       0.00000000
Si       0.20940795       0.78470559      -2.23625877       0.00000000
Si       3.18419001       0.65922372       1.04116204       0.00000000
Si      -2.83116942      -0.08933436      -2.11503564       0.00000000
Si      -0.33076845      -2.36167533       2.63495896       0.00000000
Si      -2.53050489      -1.95584256       1.72381237       0.00000000
Si       0.23337054       1.16998038       3.50709400       0.00000000
Si      -1.65871296       1.81325619      -2.99215529       0.00000000
