10
Lattice="16.28999089631971 0.0 0.0 0.0 16.28999089631971 0.0 0.0 0.0 34.61538196595647" Properties=species:S:1:pos:R:3:initial_magmoms:R:1 pbc="T T T"
Si       1.95833493       1.21850829       0.18920778       0.00000000
Si      -0.71750934      -1.12642092      -1.91817785       0.00000000
Si       0.02464677      -1.57881051       1.74980854       0.00000000
Si      -1.74272049       1.56436128       0.35255786       0.00000000
Si      -2.23291917      -2.69386101       1.68660081       0.00000000
Si      -1.45132497       0.25181082      -3.63648637       0.00000000
Si       1.99456389       3.31074702      -0.88213889       0.00000000
Si      -2.78624160      -2.21519565      -1.79903164       0.00000000
Si      -3.64391010       1.41999930      -1.02568896       0.00000000
Si       0.65876760      -2.63166579      -3.09510149       0.00000000
