10
Lattice="16.28999089631971 0.0 0.0 0.0 16.28999089631971 0.0 0.0 0.0 34.61538196595647" Properties=species:S:1:pos:R:3:initial_magmoms:R:1 pbc="T T T"
Si       1.56115215       0.51616494       1.72270468       0.00000000
Si      -1.89944658       0.57435282       1.32535449       0.00000000
Si       0.48785292       1.53976338      -1.76261623       0.00000000
Si      -0.33989085      -2.30219144      -0.64516185       0.00000000
Si       0.95695605       2.85997014       2.14383565       0.00000000
Si      -2.20305634      -1.34521843       2.70945131       0.00000000
Si      -1.60925000      -3.15498923       1.24026983       0.00000000
Si      -1.32794451       2.51742402       2.54423200       0.00000000
Si       2.85866694       1.68889833      -1.99838173       0.00000000
Si      -0.25769151       0.62235945      -3.90468650       0.00000000
