10
Lattice="16.28999089631971 0.0 0.0 0.0 16.28999089631971 0.0 0.0 0.0 34.61538196595647" Properties=species:S:1:pos:R:3:initial_magmoms:R:1 pbc="T T T"
Si       1.89801143       0.71597319      -1.21288105       0.00000000
Si      -1.28455677      -1.64929312      -1.18113253       0.00000000
Si      -1.28374227       1.38902712       1.49244995       0.00000000
Si       1.41302555      -1.33564531       1.46760302       0.00000000
Si       2.65834718       2.52834972       0.09122197       0.00000000
Si      -2.67062400       2.64177699       0.10178659       0.00000000
Si      -0.84509914       3.49328787      -1.20616885       0.00000000
Si      -2.70046728      -2.78579755       0.20439702       0.00000000
Si      -2.64389211       0.03472376       2.85376638       0.00000000
Si       0.07105861      -2.67913063       2.85483945       0.00000000
