10
Lattice="16.28999089631971 0.0 0.0 0.0 16.28999089631971 0.0 0.0 0.0 34.61538196595647" Properties=species:S:1:pos:R:3:initial_magmoms:R:1 pbc="T T T"
Si       1.22950404      -0.59725656      -1.88110475       0.00000000
Si      -0.53100513      -1.15753482       1.96200095       0.00000000
Si       1.14934095       1.72814094       1.15341979       0.00000000
Si      -2.09738637       0.76647708      -0.89003120       0.00000000
Si      -2.02359267       0.46444419       2.82963598       0.00000000
Si       1.86079041       1.57413528      -2.61851665       0.00000000
Si       2.00443563       2.89539667      -0.66070416       0.00000000
Si      -3.44766447       0.37234053       0.99806587       0.00000000
Si      -0.37611981       2.23813215       2.95276296       0.00000000
Si      -0.19357407      -3.43223784       1.66507003       0.00000000
