10
Lattice="16.28999089631971 0.0 0.0 0.0 16.28999089631971 0.0 0.0 0.0 34.61538196595647" Properties=species:S:1:pos:R:3:initial_magmoms:R:1 pbc="T T T"
Si      -1.36412460      -1.34441533       1.38234874       0.00000000
Si       1.35106002       1.36821339       1.38200259       0.00000000
Si      -1.48134744       1.32960609      -1.36998412       0.00000000
Si       1.30828248      -1.48475042      -1.47931341       0.00000000
Si       2.70075168      -2.70916451       0.02215040       0.00000000
Si      -2.72433960      -2.69590445      -0.00391500       0.00000000
Si       2.69829189       2.73492810      -0.00085846       0.00000000
Si      -2.72585457       2.71287144       0.03685502       0.00000000
Si      -0.00713502      -2.70474691       2.74353017       0.00000000
Si       2.70884781       0.01154961       2.74294171       0.00000000
