10
Lattice="16.28999089631971 0.0 0.0 0.0 16.28999089631971 0.0 0.0 0.0 34.61538196595647" Properties=species:S:1:pos:R:3:initial_magmoms:R:1 pbc="T T T"
Si      -1.35659862       1.35704513      -1.35803142       0.00000000
Si      -1.35830907      -1.35854579       1.35654296       0.00000000
Si       1.35974259       1.35738559       1.35668142       0.00000000
Si       1.35856971      -1.35800822      -1.35761604       0.00000000
Si      -2.71383255       2.71461300      -0.00034615       0.00000000
Si      -0.00188964       2.71428720      -2.71554362       0.00000000
Si      -2.71458189      -2.71548650      -0.00034615       0.00000000
Si       0.00003258      -2.71605665      -2.71447054       0.00000000
Si      -2.71560816      -0.00056721      -2.71502439       0.00000000
Si       2.71544526       2.71519944       0.00003462       0.00000000
