10
Lattice="16.28999089631971 0.0 0.0 0.0 16.28999089631971 0.0 0.0 0.0 34.61538196595647" Properties=species:S:1:pos:R:3:initial_magmoms:R:1 pbc="T T T"
Si      -1.72232541       1.02782569       1.18910827       0.00000000
Si       1.34004798      -1.03135152       1.64551233       0.00000000
Si       0.86990229       1.79817979      -1.32071602       0.00000000
Si      -1.06657146      -1.79779602      -1.18159672       0.00000000
Si      -2.45410479      -1.13940309       1.97418557       0.00000000
Si      -0.41327730      -2.54151597       2.17862413       0.00000000
Si       3.25338993      -1.44195726       0.39330019       0.00000000
Si      -2.89559637       2.07370886      -0.77147345       0.00000000
Si      -1.13948550       2.61386896      -2.37098191       0.00000000
Si       0.04298931      -1.78354227      -3.28081312       0.00000000
