10
Lattice="16.28999089631971 0.0 0.0 0.0 16.28999089631971 0.0 0.0 0.0 34.61538196595647" Properties=species:S:1:pos:R:3:initial_magmoms:R:1 pbc="T T T"
Si      -1.26465786       1.29182958       1.43829416       0.00000000
Si       1.17208179       1.62220707      -1.42039596       0.00000000
Si       1.46670273      -1.44940275       1.41492184       0.00000000
Si      -1.92065616      -0.95128713      -1.39896902       0.00000000
Si       1.86470001       0.34596702      -3.21994682       0.00000000
Si      -0.48702213       0.14947704      -3.72810091       0.00000000
Si      -2.71521720       2.63010195      -0.11328236       0.00000000
Si      -2.59768485      -0.09655083       2.80134827       0.00000000
Si       0.11745090       2.61244359       2.80044827       0.00000000
Si       2.85663069       2.61444726      -0.04993964       0.00000000
