10
Lattice="16.28999089631971 0.0 0.0 0.0 16.28999089631971 0.0 0.0 0.0 34.61538196595647" Properties=species:S:1:pos:R:3:initial_magmoms:R:1 pbc="T T T"
Si       1.34208097       0.72222367       1.77597778       0.00000000
Si       0.30360976       1.91957125      -1.38409682       0.00000000
Si      -2.37233943      -0.23657315       0.16155008       0.00000000
Si       0.59380634      -1.80977080      -1.46918148       0.00000000
Si      -2.64881331      -0.05763728      -2.17312028       0.00000000
Si      -1.42318629      -2.11776583      -2.66299744       0.00000000
Si      -1.75507875       2.10962668      -2.49971659       0.00000000
Si       2.20305634       1.34521843      -2.70945131       0.00000000
Si       3.56248942       0.65405816       1.06362744       0.00000000
Si       1.05968731       3.02401696       2.12261641       0.00000000
