10
Lattice="16.28999089631971 0.0 0.0 0.0 16.28999089631971 0.0 0.0 0.0 34.61538196595647" Properties=species:S:1:pos:R:3:initial_magmoms:R:1 pbc="T T T"
Si       1.26465786      -1.29182958      -1.43829416       0.00000000
Si       1.38210876       1.32061401       1.36215412       0.00000000
Si      -1.33302699      -1.38838041       1.36305412       0.00000000
Si      -1.45055934       1.33827237      -1.55157652       0.00000000
Si      -0.65599830      -2.24311671      -2.83726318       0.00000000
Si      -2.46892869      -0.56713635      -2.72116312       0.00000000
Si       2.43673965       0.33037749      -2.85869011       0.00000000
Si      -2.71806795       2.67788052      -0.02734963       0.00000000
Si       0.02704140       2.67986790       2.72174324       0.00000000
Si      -2.69044011      -0.03635928       2.72143170       0.00000000
