10
Lattice="16.28999089631971 0.0 0.0 0.0 16.28999089631971 0.0 0.0 0.0 34.61538196595647" Properties=species:S:1:pos:R:3:initial_magmoms:R:1 pbc="T T T"
Si      -1.35591444      -1.35806472       1.35654296       0.00000000
Si      -1.35700587       1.35695700      -1.35754681       0.00000000
Si       1.35775521      -1.35751086      -1.35709681       0.00000000
Si       1.35764118       1.35801585       1.35716604       0.00000000
Si      -0.00195480       2.71389771       2.71242823       0.00000000
Si       0.00146610       2.71399545      -2.71415900       0.00000000
Si      -2.71417464       2.71448415      -0.00010385       0.00000000
Si       2.71464705      -0.00166158      -2.71481669       0.00000000
Si      -2.71448415      -2.71585251       0.00003462       0.00000000
Si       2.71578735       2.71456560       0.00003462       0.00000000
