10
Lattice="16.28999089631971 0.0 0.0 0.0 16.28999089631971 0.0 0.0 0.0 34.61538196595647" Properties=species:S:1:pos:R:3:initial_magmoms:R:1 pbc="T T T"
Si       1.35648459       1.35843939       1.35688912       0.00000000
Si      -1.35847197      -1.35703845       1.35661219       0.00000000
Si       1.35506736      -1.35925389      -1.35958912       0.00000000
Si      -1.35764118       1.35899325      -1.36336220       0.00000000
Si      -0.02704140      -2.67986790      -2.72174324       0.00000000
Si      -0.00146610      -2.71399545       2.71415900       0.00000000
Si       2.71432125       0.00057015       2.71419362       0.00000000
Si       2.71318095      -2.71565703      -0.00065769       0.00000000
Si      -2.71564074       0.00048870       2.71405516       0.00000000
Si      -0.00097740       2.71581993       2.71422823       0.00000000
