10
Lattice="16.28999089631971 0.0 0.0 0.0 16.28999089631971 0.0 0.0 0.0 34.61538196595647" Properties=species:S:1:pos:R:3:initial_magmoms:R:1 pbc="T T T"
Si      -1.44505658       1.31263191      -1.31187179       0.00000000
Si      -1.36104905      -1.34415306       1.36886951       0.00000000
Si       1.35511623       1.36912563       1.37004643       0.00000000
Si       1.22750037      -1.56703284      -1.39139029       0.00000000
Si      -2.27594595      -0.60209469      -2.68878110       0.00000000
Si      -2.71458908      -2.70635544       0.00983770       0.00000000
Si       2.71880100      -2.70532917       0.01828385       0.00000000
Si      -0.00392589      -2.70216891       2.72980862       0.00000000
Si       2.70945054       2.72316672       0.00292846       0.00000000
Si       2.71182888       0.01238040       2.73122786       0.00000000
