10
Lattice="16.28999089631971 0.0 0.0 0.0 16.28999089631971 0.0 0.0 0.0 34.61538196595647" Properties=species:S:1:pos:R:3:initial_magmoms:R:1 pbc="T T T"
Si      -2.23788762      -0.40211865       0.74890421       0.00000000
Si      -0.02435355      -1.26741087      -2.05383561       0.00000000
Si       1.52919117      -1.23303897       1.47793917       0.00000000
Si       0.55242648       2.40626106      -0.20866164       0.00000000
Si      -0.11051136      -3.23322291       1.54568151       0.00000000
Si       2.72161917       0.91652427       2.17616643       0.00000000
Si      -3.48309522      -0.40698936      -1.26349676       0.00000000
Si      -2.27411658      -2.49435738       1.82025088       0.00000000
Si       2.76889275       2.53055376      -1.05774282       0.00000000
Si      -0.65634039       0.06250473      -3.84417878       0.00000000
