10
Lattice="16.28999089631971 0.0 0.0 0.0 16.28999089631971 0.0 0.0 0.0 34.61538196595647" Properties=species:S:1:pos:R:3:initial_magmoms:R:1 pbc="T T T"
Si      -2.16360522       0.73886553       0.27456936       0.00000000
Si      -0.13893741      -1.00782972      -2.15079335       0.00000000
Si       0.66432249      -1.87287759       1.44353147       0.00000000
Si       1.63970253       2.00018394      -0.06774234       0.00000000
Si       1.17351531       1.32851466       2.35751652       0.00000000
Si       3.31279956       0.56910744      -1.14826209       0.00000000
Si       2.15660052      -0.87824277      -2.71388208       0.00000000
Si       0.11051136       3.23322291      -1.54568151       0.00000000
Si      -2.12737626       2.83110426      -0.79677731       0.00000000
Si      -1.36078515      -2.95888302      -2.02077790       0.00000000
