10
Lattice="16.28999089631971 0.0 0.0 0.0 16.28999089631971 0.0 0.0 0.0 34.61538196595647" Properties=species:S:1:pos:R:3:initial_magmoms:R:1 pbc="T T T"
Si       1.36202319       1.36475991      -1.34817642       0.00000000
Si      -1.35909099       1.35601218       1.36363912       0.00000000
Si       1.35764118      -1.35899325       1.36336220       0.00000000
Si      -1.38746817      -1.36098063      -1.38573067       0.00000000
Si       2.62612719      -0.01255959      -2.75601594       0.00000000
Si      -2.71217097      -2.71251306       0.00249231       0.00000000
Si      -2.71505430       2.71378368       0.00107308       0.00000000
Si       2.71494027       2.71422351       0.00695770       0.00000000
Si       2.71270854      -2.71824714       0.00377308       0.00000000
Si       2.71412577      -0.00055386       2.72025131       0.00000000
