10
Lattice="16.28999089631971 0.0 0.0 0.0 16.28999089631971 0.0 0.0 0.0 34.61538196595647" Properties=species:S:1:pos:R:3:initial_magmoms:R:1 pbc="T T T"
Si      -1.35621106      -1.35653346       1.35837758       0.00000000
Si      -1.35552688       1.35954711      -1.35612758       0.00000000
Si       1.35863377       1.35842310       1.35848142       0.00000000
Si       1.35961280      -1.35684297      -1.36017758       0.00000000
Si      -2.71274452      -2.71422351       0.00013846       0.00000000
Si       2.71460196       2.71409319       0.00103846       0.00000000
Si      -2.71443868       2.71459818       0.00079615       0.00000000
Si      -2.71333096       0.00043983       2.71609746       0.00000000
Si       0.00129935      -2.71409319       2.71543977       0.00000000
Si       0.00154063       2.71581993       2.71550900       0.00000000
