10
Lattice="16.28999089631971 0.0 0.0 0.0 16.28999089631971 0.0 0.0 0.0 34.61538196595647" Properties=species:S:1:pos:R:3:initial_magmoms:R:1 pbc="T T T"
Si       1.37488156       1.37404521       1.34861604       0.00000000
Si      -1.29090105       1.43611011      -1.41448914       0.00000000
Si       1.42090732      -1.30424093      -1.42200069       0.00000000
Si      -1.58472378      -0.97728597       1.52560458       0.00000000
Si       1.76835185       0.03385062       3.28915543       0.00000000
Si      -2.62202211      -2.72781656       0.11713852       0.00000000
Si      -3.43992672       0.85589289       1.46405840       0.00000000
Si       2.65710167      -2.77653995       0.06535388       0.00000000
Si      -2.65132782       0.06442695      -2.80256674       0.00000000
Si       0.06698883      -2.65441382      -2.80447058       0.00000000
