10
Lattice="16.28999089631971 0.0 0.0 0.0 16.28999089631971 0.0 0.0 0.0 34.61538196595647" Properties=species:S:1:pos:R:3:initial_magmoms:R:1 pbc="T T T"
Si       0.14071302      -0.01255959      -2.32698574       0.00000000
Si       2.05868852      -0.19005543       1.11561977       0.00000000
Si      -0.89373456      -2.16726395       0.32659631       0.00000000
Si      -1.79709651       1.53751536       0.71055034       0.00000000
Si      -2.98841679      -1.67275657      -0.67430802       0.00000000
Si      -2.00134053      -0.98912880      -2.75379364       0.00000000
Si      -0.61726068      -2.34619983       2.66126667       0.00000000
Si       1.75507875      -2.10962668       2.49971659       0.00000000
Si      -1.72126656       3.37812246      -0.72446573       0.00000000
Si      -3.84432597       0.23086188       0.59161182       0.00000000
