10
Lattice="16.28999089631971 0.0 0.0 0.0 16.28999089631971 0.0 0.0 0.0 34.61538196595647" Properties=species:S:1:pos:R:3:initial_magmoms:R:1 pbc="T T T"
Si      -0.27647388       0.17893588      -2.33467036       0.00000000
Si       2.37233943       0.23657315      -0.16155008       0.00000000
Si      -1.23170319       1.61507205       1.26283907       0.00000000
Si      -0.54633402      -2.28850784       0.43196559       0.00000000
Si       0.94915314      -1.88119268      -2.82454752       0.00000000
Si       0.61726068       2.34619983      -2.66126667       0.00000000
Si      -3.43342701       1.43940069       0.15601161       0.00000000
Si       2.96614577      -1.57319765      -1.63073156       0.00000000
Si       2.67594920       2.15614440      -1.54564690       0.00000000
Si       0.97847514      -2.98855430       2.11091640       0.00000000
