10
Lattice="16.28999089631971 0.0 0.0 0.0 16.28999089631971 0.0 0.0 0.0 34.61538196595647" Properties=species:S:1:pos:R:3:initial_magmoms:R:1 pbc="T T T"
Si      -2.12441148      -0.66096675       0.78999269       0.00000000
Si       0.98643348       1.96271694       0.88850812       0.00000000
Si       1.49099831      -1.77305247       0.61757337       0.00000000
Si      -0.67479696       0.71682516      -2.22542415       0.00000000
Si       1.78491552       2.82419730      -1.14556209       0.00000000
Si      -3.02559057       1.48719555       1.26585061       0.00000000
Si      -2.93628879      -1.98855288      -1.00637356       0.00000000
Si       2.38891940       1.18412010       2.63845512       0.00000000
Si      -2.86045884      -0.14794578      -2.44138964       0.00000000
Si      -0.32250942       3.10664961      -2.13154718       0.00000000
