10
Lattice="16.28999089631971 0.0 0.0 0.0 16.28999089631971 0.0 0.0 0.0 34.61538196595647" Properties=species:S:1:pos:R:3:initial_magmoms:R:1 pbc="T T T"
Si      -0.13654278      -1.32237333       1.92807785       0.00000000
Si       2.12441148       0.66096675      -0.78999269       0.00000000
Si      -0.81187731      -1.32758613      -1.79636625       0.00000000
Si      -0.90117909       2.14816230       0.47585792       0.00000000
Si      -0.73604736       0.51302097      -3.23138233       0.00000000
Si       1.44961452       1.37779191      -3.01541684       0.00000000
Si       3.61540979      -1.11208572      -0.17241931       0.00000000
Si      -3.19671702       2.01857535       1.03894665       0.00000000
Si       0.98521920      -2.86510149      -2.50691659       0.00000000
Si       1.88915130      -1.14733728       3.25928234       0.00000000
