10
Lattice="16.28999089631971 0.0 0.0 0.0 16.28999089631971 0.0 0.0 0.0 34.61538196595647" Properties=species:S:1:pos:R:3:initial_magmoms:R:1 pbc="T T T"
Si       1.01037096      -0.15094314      -2.19963568       0.00000000
Si       1.84950374      -0.07289775       1.64320972       0.00000000
Si      -1.94085576      -1.57213161      -0.42566559       0.00000000
Si      -0.92051532       2.34641160      -0.31749246       0.00000000
Si       0.02397888      -0.92440863       2.95116516       0.00000000
Si      -1.13279031      -2.52752382       1.59213538       0.00000000
Si      -2.81165400       0.17770761      -1.99024711       0.00000000
Si       2.24669955       1.93376961      -1.90014322       0.00000000
Si      -1.01532312      -0.32597919      -3.53084016       0.00000000
Si      -3.27223746       2.14992162      -0.82564655       0.00000000
