10
Lattice="16.28999089631971 0.0 0.0 0.0 16.28999089631971 0.0 0.0 0.0 34.61538196595647" Properties=species:S:1:pos:R:3:initial_magmoms:R:1 pbc="T T T"
Si      -1.35814617      -1.35654975       1.35713142       0.00000000
Si       1.35707103      -1.35736425      -1.35751219       0.00000000
Si       1.35835794       1.35637056       1.35723527       0.00000000
Si      -1.35783666       1.35786924      -1.35730450       0.00000000
Si       2.71329874      -0.00083079      -2.71471285       0.00000000
Si       2.71479242      -0.00016290       2.71339746       0.00000000
Si      -2.71432125      -0.00057015      -2.71419362       0.00000000
Si       2.71462574       2.71477737      -0.00045000       0.00000000
Si       2.71483901      -2.71500543      -0.00013846       0.00000000
Si      -2.71774215      -0.00066789       2.71239362       0.00000000
