10
Lattice="16.28999089631971 0.0 0.0 0.0 16.28999089631971 0.0 0.0 0.0 34.61538196595647" Properties=species:S:1:pos:R:3:initial_magmoms:R:1 pbc="T T T"
Si      -1.59299910      -1.04941809       1.39635067       0.00000000
Si      -1.09167435       0.61761906      -2.01710867       0.00000000
Si       1.14285820       1.91842443       0.86064272       0.00000000
Si       1.26282591      -2.02124691      -0.54661180       0.00000000
Si       2.06130795      -1.15976655      -2.58068201       0.00000000
Si      -2.92874652      -0.80532873      -1.82353934       0.00000000
Si      -0.04611699      -0.87731424      -3.56666710       0.00000000
Si      -2.74919814      -2.49676830      -0.16926931       0.00000000
Si       2.38258259       1.05704181       2.68670899       0.00000000
Si      -0.31768758      -1.98008208       3.23217848       0.00000000
