10
Lattice="16.28999089631971 0.0 0.0 0.0 16.28999089631971 0.0 0.0 0.0 34.61538196595647" Properties=species:S:1:pos:R:3:initial_magmoms:R:1 pbc="T T T"
Si      -1.43692461       1.27975869      -1.28379523       0.00000000
Si      -1.38002364      -1.32911739       1.36488181       0.00000000
Si       1.33460127       1.38642561       1.36664720       0.00000000
Si       1.46986040      -1.45771065      -1.51936689       0.00000000
Si      -0.02101410       2.41626312      -2.66932479       0.00000000
Si       2.67656822       2.72991093      -0.02058924       0.00000000
Si      -0.02627201      -2.68636761       2.72440170       0.00000000
Si       2.70582506      -2.70576900       0.01220193       0.00000000
Si       2.68870427       0.02997360       2.72398631       0.00000000
Si      -2.73373893      -2.68483635      -0.01660847       0.00000000
