10
Lattice="16.28999089631971 0.0 0.0 0.0 16.28999089631971 0.0 0.0 0.0 34.61538196595647" Properties=species:S:1:pos:R:3:initial_magmoms:R:1 pbc="T T T"
Si       2.13219810      -0.14278185       1.14237747       0.00000000
Si      -1.44521622      -1.82847105       0.71640035       0.00000000
Si      -1.15681806       1.80747324       1.22735828       0.00000000
Si       0.34456608      -0.02878443      -2.50151659       0.00000000
Si       0.73010151       2.42204674       2.69297438       0.00000000
Si       2.91538872      -2.22459498       0.55419257       0.00000000
Si       1.59712047       0.30317319       3.41148626       0.00000000
Si       2.10241998      -1.85463279      -2.55202046       0.00000000
Si      -0.27875448      -3.92786109      -0.05254618       0.00000000
Si      -3.75520338      -1.28681226      -0.35505017       0.00000000
