10
Lattice="16.28999089631971 0.0 0.0 0.0 16.28999089631971 0.0 0.0 0.0 34.61538196595647" Properties=species:S:1:pos:R:3:initial_magmoms:R:1 pbc="T T T"
Si       1.49105628       1.53080388      -0.97888893       0.00000000
Si      -1.88379189      -0.58896495      -1.29506601       0.00000000
Si       1.21481046      -2.04250536      -0.50102332       0.00000000
Si      -0.55374597       0.48954708       2.32992805       0.00000000
Si      -2.20317363      -2.72215674      -0.44349252       0.00000000
Si       3.35456712       1.29925782       0.47436946       0.00000000
Si      -0.18204075      -3.81161565       0.04579618       0.00000000
Si      -2.20345056      -0.95987196       3.15225152       0.00000000
Si       2.02613391       1.08484884      -3.24799772       0.00000000
Si      -1.55128041      -0.60084036      -3.67397485       0.00000000
