10
Lattice="16.28999089631971 0.0 0.0 0.0 16.28999089631971 0.0 0.0 0.0 34.61538196595647" Properties=species:S:1:pos:R:3:initial_magmoms:R:1 pbc="T T T"
Si       1.54652929       1.60653609      -0.61366183       0.00000000
Si      -1.86351084       0.23154606      -1.45325839       0.00000000
Si      -0.63729738       0.61623441       2.20780491       0.00000000
Si       1.39290318      -2.00248083      -0.16809239       0.00000000
Si       2.64905441       1.77702723       1.51618919       0.00000000
Si      -3.35456712      -1.29925782      -0.47436946       0.00000000
Si       1.37969525       0.92422944       3.40162087       0.00000000
Si       2.50492049       0.99199584      -2.77542826       0.00000000
Si      -0.01861947      -3.89607930      -0.16667316       0.00000000
Si       0.66020831       3.64168556      -1.33428526       0.00000000
