10
Lattice="16.28999089631971 0.0 0.0 0.0 16.28999089631971 0.0 0.0 0.0 34.61538196595647" Properties=species:S:1:pos:R:3:initial_magmoms:R:1 pbc="T T T"
Si      -0.28750221      -1.69318260       1.55295075       0.00000000
Si       2.06873226       1.08877473      -0.11914621       0.00000000
Si      -0.42371919      -1.10110626      -2.04888560       0.00000000
Si      -1.81069866       1.51352019       0.37239249       0.00000000
Si       0.45981783       0.75253284      -3.21127078       0.00000000
Si       1.33491663       2.46700647      -1.83745473       0.00000000
Si      -2.52404428      -2.28227787       0.63934646       0.00000000
Si      -2.70861975      -1.44365238      -1.64848926       0.00000000
Si       0.55332243      -0.47866536       3.48563245       0.00000000
Si       1.34846991      -3.28155534       0.92911199       0.00000000
