10
Lattice="16.28999089631971 0.0 0.0 0.0 16.28999089631971 0.0 0.0 0.0 34.61538196595647" Properties=species:S:1:pos:R:3:initial_magmoms:R:1 pbc="T T T"
Si       0.28750221       1.69318260      -1.55295075       0.00000000
Si       1.63597212      -1.58837274      -0.62383876       0.00000000
Si       0.84082464       1.21451724       1.93268170       0.00000000
Si      -2.23654207      -0.58909527      -0.91360429       0.00000000
Si      -1.29930669       2.23653555       2.28697033       0.00000000
Si       0.26626005      -2.95905407      -1.97259326       0.00000000
Si      -0.13621698       0.59207634      -3.60183635       0.00000000
Si      -1.95414840      -2.89088856      -1.26024292       0.00000000
Si      -1.52319645       3.20670279      -1.18055826       0.00000000
Si      -2.91104743       2.29899141       0.52975410       0.00000000
