10
Lattice="16.28999089631971 0.0 0.0 0.0 16.28999089631971 0.0 0.0 0.0 34.61538196595647" Properties=species:S:1:pos:R:3:initial_magmoms:R:1 pbc="T T T"
Si      -1.23596465       1.24805835      -1.53156882       0.00000000
Si      -1.37355814      -1.33200072       1.35219527       0.00000000
Si       1.34004798       1.37601630       1.35157219       0.00000000
Si       1.30129407      -1.41718113      -1.44443493       0.00000000
Si      -2.06272939      -0.70537329      -2.75369121       0.00000000
Si       2.21144895       0.29365983      -2.91226437       0.00000000
Si       0.57291930       2.22027813      -2.88252974       0.00000000
Si      -0.36439101      -2.52296262      -2.72288351       0.00000000
Si       2.69801496      -2.70011637      -0.01485347       0.00000000
Si      -0.01749546      -2.69649999       2.71230362       0.00000000
