10
Lattice="16.28999089631971 0.0 0.0 0.0 16.28999089631971 0.0 0.0 0.0 34.61538196595647" Properties=species:S:1:pos:R:3:initial_magmoms:R:1 pbc="T T T"
Si      -1.35626930      -1.35641943       1.35816989       0.00000000
Si       1.35709314      -1.35739683      -1.35702758       0.00000000
Si       1.35627375       1.35892809       1.35737373       0.00000000
Si      -1.35776798       1.35764118      -1.35737373       0.00000000
Si       2.71306133      -0.00172674      -2.71447054       0.00000000
Si      -0.00004659       2.71484253       2.71353592       0.00000000
Si      -0.00154028       2.71417464      -2.71457439       0.00000000
Si       2.71446227       2.71526607      -0.00031154       0.00000000
Si      -2.71483901       2.71500543       0.00013846       0.00000000
Si      -2.71487159      -2.71538010       0.00058846       0.00000000
