10
Lattice="16.28999089631971 0.0 0.0 0.0 16.28999089631971 0.0 0.0 0.0 34.61538196595647" Properties=species:S:1:pos:R:3:initial_magmoms:R:1 pbc="T T T"
Si      -0.47792905       0.46804428      -2.24633185       0.00000000
Si      -2.00274051      -0.63221490       1.25643318       0.00000000
Si       0.82676474       1.95343164       1.22212240       0.00000000
Si       1.69833839      -1.81758933       0.03080771       0.00000000
Si      -1.71000921       2.37236157      -1.50244688       0.00000000
Si      -0.69970437      -1.98449667       2.75246929       0.00000000
Si       2.06272939       0.70537329       2.75369121       0.00000000
Si       3.36402346      -0.71180784       1.30925629       0.00000000
Si       0.60623724      -3.40527789       1.42403750       0.00000000
Si      -1.42260474      -1.58586408      -3.17769384       0.00000000
