10
Lattice="16.28999089631971 0.0 0.0 0.0 16.28999089631971 0.0 0.0 0.0 34.61538196595647" Properties=species:S:1:pos:R:3:initial_magmoms:R:1 pbc="T T T"
Si      -1.23972439       0.86138262      -1.82606627       0.00000000
Si       1.23575940      -1.73521080      -1.08242360       0.00000000
Si       1.42060203       1.66817745       1.16030825       0.00000000
Si      -1.75559448      -0.98321553       1.47683148       0.00000000
Si       3.13694901      -1.59084882       0.29582322       0.00000000
Si       3.49853814       0.72146781       0.03201925       0.00000000
Si      -2.38258259      -1.05704181      -2.68670899       0.00000000
Si      -1.27975055       2.55003660       2.47299350       0.00000000
Si      -2.98767464       0.92110176       2.22071646       0.00000000
Si      -2.88416798       2.38816287      -1.06656975       0.00000000
