10
Lattice="16.28999089631971 0.0 0.0 0.0 16.28999089631971 0.0 0.0 0.0 34.61538196595647" Properties=species:S:1:pos:R:3:initial_magmoms:R:1 pbc="T T T"
Si       1.35677292      -1.35685926       1.35695835       0.00000000
Si       1.35574665       1.35839052      -1.35771989       0.00000000
Si      -1.35790262       1.35765747       1.35695835       0.00000000
Si      -1.35922963      -1.35795069      -1.35730450       0.00000000
Si      -0.00069070      -2.70935280      -2.71730900       0.00000000
Si       2.71208463      -0.00022806       2.71474746       0.00000000
Si      -0.00141560      -2.71319724       2.71464362       0.00000000
Si       2.71436523      -2.71438641       0.00031154       0.00000000
Si      -2.71417042      -0.00074934       2.71464362       0.00000000
Si       0.00024761       2.71518462       2.71402054       0.00000000
