10
Lattice="16.28999089631971 0.0 0.0 0.0 16.28999089631971 0.0 0.0 0.0 34.61538196595647" Properties=species:S:1:pos:R:3:initial_magmoms:R:1 pbc="T T T"
Si      -1.41152265      -1.89359847       0.00141923       0.00000000
Si       1.28366503      -0.36662274      -1.98965865       0.00000000
Si      -1.39290318       2.00248083       0.16809239       0.00000000
Si       2.04551575      -0.25622541       1.31476217       0.00000000
Si       1.64300614      -2.65890267      -1.53844690       0.00000000
Si       0.15362610       3.60901692      -0.44556945       0.00000000
Si       2.87847232       2.10746988       1.34280065       0.00000000
Si       2.86659691      -2.51315604       0.47163484       0.00000000
Si      -1.54541016      -2.81116530       2.12455487       0.00000000
Si      -3.53265984      -1.33928235      -0.80730039       0.00000000
