10
Lattice="16.290000149 0.0 0.0 0.0 16.290000149 0.0 0.0 0.0 29.1751946751" Properties=species:S:1:pos:R:3:initial_magmoms:R:1 pbc="T T T"
Si      -1.34255665       1.35874891      -1.36852086       0.00000000
Si       1.32834363      -1.34858395      -1.39477853       0.00000000
Si       1.34909709       1.37865529       1.34955698       0.00000000
Si      -1.34439742      -1.37083609       1.36440715       0.00000000
Si       2.66664044      -2.70738173      -0.03045890       0.00000000
Si      -2.68685633       2.72342738      -0.01747594       0.00000000
Si      -2.70932024      -2.71016732      -0.00904431       0.00000000
Si       2.71774217       0.03808602       2.70947115       0.00000000
Si      -2.72823294      -0.02787219       2.70066025       0.00000000
Si      -2.71331129       0.01104462      -2.72420463       0.00000000
