10
Lattice="16.290000149 0.0 0.0 0.0 16.290000149 0.0 0.0 0.0 29.1751946751" Properties=species:S:1:pos:R:3:initial_magmoms:R:1 pbc="T T T"
Si      -1.37894525       1.43380998      -1.17377643       0.00000000
Si       1.52643817      -1.26366418      -1.21485511       0.00000000
Si       0.83160451       1.68057416       1.38567587       0.00000000
Si      -0.92279593      -1.72801064       1.28058682       0.00000000
H        0.20307114       2.98805844       0.93322695       0.00000000
Si       2.55883322      -2.08376795       0.73903686       0.00000000
Si       0.11303631      -2.65748546      -2.51458085       0.00000000
Si      -2.61678936       0.08086877      -2.61307631       0.00000000
Si       0.08671167       1.08685904       3.54461110       0.00000000
Si       0.73184455      -3.37892070       1.37598971       0.00000000
