10
Lattice="16.290000149 0.0 0.0 0.0 16.290000149 0.0 0.0 0.0 29.1751946751" Properties=species:S:1:pos:R:3:initial_magmoms:R:1 pbc="T T T"
Si       1.35534430       1.36790389       1.33800360       0.00000000
Si      -1.32829476       1.36086661      -1.37409332       0.00000000
Si       1.38427534      -1.35474646      -1.33456093       0.00000000
Si      -1.34719116      -1.35416002       1.37607723       0.00000000
Si       2.70850574       0.00337203       2.67889555       0.00000000
Si      -2.69832449      -0.00834048      -2.69937654       0.00000000
Si       0.05973543      -2.68167216       2.71831124       0.00000000
Si       0.02762784      -2.71736750      -2.68522657       0.00000000
Si      -2.69405651       2.71208954      -0.02418624       0.00000000
Si      -0.02249649       2.71360451       2.69505861       0.00000000
