10
Lattice="16.290000149 0.0 0.0 0.0 16.290000149 0.0 0.0 0.0 29.1751946751" Properties=species:S:1:pos:R:3:initial_magmoms:R:1 pbc="T T T"
Si       0.43815213      -0.24777090       2.28294877       0.00000000
Si      -1.72072901       1.62890227       0.10199648       0.00000000
Si      -0.04732245      -2.29519586      -0.66347310       0.00000000
Si       1.87030379       0.89722063      -1.27766930       0.00000000
H       -0.90591949       0.16474077      -2.52960608       0.00000000
Si       2.15630732      -2.67612122       0.13846547       0.00000000
Si      -0.32534388       3.36842994      -0.81702215       0.00000000
Si       2.07137126      -1.98307946       2.36720819       0.00000000
Si       3.46423143       1.71108533       0.28221166       0.00000000
Si      -3.77861214       0.61805890      -0.63094276       0.00000000
