10
Lattice="16.290000149 0.0 0.0 0.0 16.290000149 0.0 0.0 0.0 29.1751946751" Properties=species:S:1:pos:R:3:initial_magmoms:R:1 pbc="T T T"
Si       1.41893558      -1.22823343      -1.39521616       0.00000000
Si       1.44481387       1.44140437       1.15417070       0.00000000
Si      -1.29134089       1.42239394      -1.35451676       0.00000000
Si      -1.64845028      -1.06122835       1.42547084       0.00000000
H        1.98384509      -1.45925821       1.38340021       0.00000000
H       -1.07298973       1.40755375       2.79314561       0.00000000
H        0.11122063      -2.92640079       1.78969397       0.00000000
Si       2.74747143      -2.31396194       0.20017101       0.00000000
Si      -0.04500927       2.51493167       2.57932061       0.00000000
Si      -2.62060490       2.49261437       0.26529005       0.00000000
