10
Lattice="16.290000149 0.0 0.0 0.0 16.290000149 0.0 0.0 0.0 29.1751946751" Properties=species:S:1:pos:R:3:initial_magmoms:R:1 pbc="T T T"
Si       1.37894525      -1.43380998       1.17377643       0.00000000
Si      -1.23784411      -1.35294120      -1.43929988       0.00000000
Si       1.41644483       1.33495248      -1.33858711       0.00000000
Si      -1.24260933       1.25461020       1.58893945       0.00000000
H        1.58201640       1.55424846       2.10700338       0.00000000
Si       2.21054976       0.24676418       2.55945230       0.00000000
Si      -2.51835583       2.64033535       0.10966956       0.00000000
Si      -2.54779186      -2.68247107      -0.06301842       0.00000000
Si       0.06671732       2.64116614      -2.74547334       0.00000000
Si      -2.70533245      -0.05156437      -2.70319849       0.00000000
