10
Lattice="16.290000149 0.0 0.0 0.0 16.290000149 0.0 0.0 0.0 29.1751946751" Properties=species:S:1:pos:R:3:initial_magmoms:R:1 pbc="T T T"
Si       1.38969991       1.34493499       1.27594213       0.00000000
Si       1.25858170      -1.40025583      -1.36530575       0.00000000
Si      -1.31502655       1.26382708      -1.47261503       0.00000000
Si      -1.41108868      -1.40439349       1.25802856       0.00000000
Si      -2.17209233      -0.67259782      -2.51274282       0.00000000
Si      -0.46722978      -2.34116624      -2.63925784       0.00000000
Si      -0.03549591       2.70510113       2.54617175       0.00000000
Si       2.71921593      -0.06410115       2.58733795       0.00000000
Si       2.57940749      -0.07545528      -2.73311998       0.00000000
Si       2.68486895       2.65914704      -0.19376122       0.00000000
