10
Lattice="16.290000149 0.0 0.0 0.0 16.290000149 0.0 0.0 0.0 29.1751946751" Properties=species:S:1:pos:R:3:initial_magmoms:R:1 pbc="T T T"
Si      -1.30308598      -1.35384562       1.43445096       0.00000000
Si       1.36026551      -1.45826452      -1.28763846       0.00000000
Si       1.39056328       1.28700775       1.43500529       0.00000000
Si      -1.30067506       1.53028261      -1.31826075       0.00000000
Si       2.70501968       0.00480555      -2.52138013       0.00000000
Si      -2.53247600       2.73101510       0.27842764       0.00000000
Si      -2.64966626      -2.68710068       0.04539660       0.00000000
Si       2.80228728       2.67786425       0.17825460       0.00000000
Si      -2.64668519      -0.05059674       2.85872562       0.00000000
Si       0.10913665       2.63215451       2.89169359       0.00000000
