10
Lattice="16.290000149 0.0 0.0 0.0 16.290000149 0.0 0.0 0.0 29.1751946751" Properties=species:S:1:pos:R:3:initial_magmoms:R:1 pbc="T T T"
Si       1.39054699       1.43581690      -1.17826941       0.00000000
Si       1.70202809      -1.59759289       0.01563790       0.00000000
Si      -0.95887828       1.26980551       1.75369178       0.00000000
Si      -1.59392764      -0.81386470      -1.55988096       0.00000000
Si      -2.07420572       1.21238326      -2.62722628       0.00000000
Si      -0.17653473       2.71502174      -2.30559893       0.00000000
Si       0.62990173      -3.35806950      -1.04703939       0.00000000
Si      -2.41109921       2.68499927       0.53425616       0.00000000
Si      -0.29616849      -2.31419000      -2.88169233       0.00000000
Si       2.35382357      -2.02220804       2.14750439       0.00000000
