10
Lattice="16.290000149 0.0 0.0 0.0 16.290000149 0.0 0.0 0.0 29.1751946751" Properties=species:S:1:pos:R:3:initial_magmoms:R:1 pbc="T T T"
Si      -1.31312062       0.45918252      -0.60567704       0.00000000
H        0.56674540      -0.12325014      -2.33459908       0.00000000
Si       1.75109357      -0.63578242      -1.53312730       0.00000000
Si       1.06012063      -2.50048244      -0.11967665       0.00000000
Si      -2.57390147       0.70506379       1.33184764       0.00000000
Si      -2.27753750      -1.53689635      -1.48565926       0.00000000
Si       0.43538283      -2.16917642       2.21235501       0.00000000
Si      -1.34578207      -0.61903630       2.84405633       0.00000000
Si       3.05742126       1.03133620      -0.36110138       0.00000000
Si      -1.05083533       2.48665223      -1.80588620       0.00000000
