10
Lattice="16.290000149 0.0 0.0 0.0 16.290000149 0.0 0.0 0.0 29.1751946751" Properties=species:S:1:pos:R:3:initial_magmoms:R:1 pbc="T T T"
Si       1.36018243       1.36537894       1.32971785       0.00000000
Si       1.36604683      -1.34662915      -1.35086986       0.00000000
Si      -1.32794452       1.36695907      -1.37721506       0.00000000
Si      -1.35620767      -1.37714032       1.35769686       0.00000000
Si       2.69604389      -0.00977400       2.68391368       0.00000000
Si      -0.00197109      -2.69557148      -2.68939862       0.00000000
Si      -2.70646949       0.00309510      -2.68227987       0.00000000
Si      -2.71334387       2.68141547      -0.01899305       0.00000000
Si       0.01283652       2.71324613       2.69578799       0.00000000
Si       2.69843852       2.72248256      -0.05140669       0.00000000
