10
Lattice="16.290000149 0.0 0.0 0.0 16.290000149 0.0 0.0 0.0 29.1751946751" Properties=species:S:1:pos:R:3:initial_magmoms:R:1 pbc="T T T"
H        1.27407349       0.03407868       0.83163892       0.00000000
Si      -1.37399472      -1.38452621       1.32872589       0.00000000
Si       0.58785724      -1.52007856      -1.76480753       0.00000000
Si      -0.80251057       2.27098892       0.18780073       0.00000000
Si       0.52738875       1.94533553      -1.70205168       0.00000000
Si       2.73054612       1.90619066      -0.87461399       0.00000000
Si       0.46452564      -2.56518632       2.26408263       0.00000000
H       -3.09653355       0.96161500      -1.49473275       0.00000000
Si       3.58977846      -0.17412381      -0.08942197       0.00000000
Si       2.65536776      -2.24565797      -0.91580936       0.00000000
