10
Lattice="16.290000149 0.0 0.0 0.0 16.290000149 0.0 0.0 0.0 29.1751946751" Properties=species:S:1:pos:R:3:initial_magmoms:R:1 pbc="T T T"
Si      -1.41934771       1.37269315      -1.25260781       0.00000000
Si      -1.29886687      -1.23559651       1.50377706       0.00000000
Si       1.18397350      -1.45091773      -1.41140839       0.00000000
Si       1.85386718       0.93211381       1.10813224       0.00000000
Si       3.45623304      -0.84470167       1.02095676       0.00000000
Si      -0.04368978       2.69407280      -2.61573125       0.00000000
Si       2.58292613      -2.73298962      -0.05444091       0.00000000
Si       2.56710854      -0.11482821      -2.75192106       0.00000000
Si       0.17832663      -2.56976381       2.77540709       0.00000000
Si      -2.77711923      -0.00816129      -2.60268994       0.00000000
