10
Lattice="16.290000149 0.0 0.0 0.0 16.290000149 0.0 0.0 0.0 29.1751946751" Properties=species:S:1:pos:R:3:initial_magmoms:R:1 pbc="T T T"
Si       1.92094940      -1.06127885       0.77655616       0.00000000
Si      -1.24331797      -1.32338821      -1.47352238       0.00000000
Si       1.16365987       1.43667539      -1.50155974       0.00000000
Si      -0.97446781       0.41560189       2.14933659       0.00000000
H       -1.94064401       2.10394637       0.77150885       0.00000000
Si       0.07113843       2.55278475       2.55034964       0.00000000
Si      -2.58950729      -2.61438701      -0.10342607       0.00000000
Si       3.66819852      -0.74189222      -0.71598845       0.00000000
Si       2.68768712       0.12192739      -2.70185643       0.00000000
Si       2.60828966       2.76561360      -0.29563225       0.00000000
