10
Lattice="16.290000149 0.0 0.0 0.0 16.290000149 0.0 0.0 0.0 29.1751946751" Properties=species:S:1:pos:R:3:initial_magmoms:R:1 pbc="T T T"
Si      -0.73477675       1.32639697      -1.78931469       0.00000000
Si       1.99019819      -0.89493677      -0.97824428       0.00000000
Si      -1.51381342      -1.85083398      -0.06987459       0.00000000
Si      -0.62245720       1.07233813       2.05057856       0.00000000
H        2.43975332       1.37262799       1.04418022       0.00000000
H        1.22613202      -0.79187808       2.78841923       0.00000000
Si      -2.48764592       2.29944755      -0.52570783       0.00000000
Si       0.80032771      -2.03783895      -2.66955949       0.00000000
Si      -0.63030898      -0.40580019      -3.59476326       0.00000000
Si       2.56937285      -2.62431902       0.54598459       0.00000000
