10
Lattice="16.290000149 0.0 0.0 0.0 16.290000149 0.0 0.0 0.0 29.1751946751" Properties=species:S:1:pos:R:3:initial_magmoms:R:1 pbc="T T T"
Si       1.35905679      -1.33887511       1.38156800       0.00000000
Si      -1.50532796      -1.38494323      -1.16971758       0.00000000
Si      -1.39986650       1.34965909       1.36964118       0.00000000
Si       1.48737312       1.20000286      -1.43534664       0.00000000
Si      -2.64569313       0.11673414      -2.55278577       0.00000000
Si       2.66165408       2.66782961       0.01440088       0.00000000
Si      -0.24268191      -2.81202870      -2.49884084       0.00000000
Si       0.13213634       2.60768693      -2.75100204       0.00000000
Si      -0.01489558      -2.69996978       2.74370825       0.00000000
Si       2.67954050       0.00208512       2.77612189       0.00000000
