10
Lattice="16.290000149 0.0 0.0 0.0 16.290000149 0.0 0.0 0.0 29.1751946751" Properties=species:S:1:pos:R:3:initial_magmoms:R:1 pbc="T T T"
Si      -1.32048370      -1.34096023      -1.39455388       0.00000000
Si       1.35568639       1.31468446      -1.39951950       0.00000000
Si      -1.37863900       1.35940051       1.33631144       0.00000000
Si       1.35250984      -1.36756180       1.35629645       0.00000000
Si       2.69941592       2.68397300      -0.03594384       0.00000000
Si      -2.69443607      -2.70205490      -0.03241364       0.00000000
Si       0.09853821      -2.72326448      -2.67840541       0.00000000
Si      -0.01878237       2.71399547       2.69044893       0.00000000
Si       2.69926931      -0.01062108       2.71895309       0.00000000
Si      -0.01788642       2.66574449      -2.76172101       0.00000000
