10
Lattice="16.290000149 0.0 0.0 0.0 16.290000149 0.0 0.0 0.0 29.1751946751" Properties=species:S:1:pos:R:3:initial_magmoms:R:1 pbc="T T T"
Si       0.59559499       0.09870111       1.40341439       0.00000000
H        2.13216554      -0.74329642      -0.27284642       0.00000000
Si       1.41206608      -0.81668287      -1.59853809       0.00000000
Si      -0.44144271      -2.29480490      -1.74400561       0.00000000
Si      -1.11977461       0.54366246       2.93140686       0.00000000
H       -3.12113145      -0.61519186       0.75000673       0.00000000
Si       1.07587306      -1.92754685       2.47075971       0.00000000
Si       1.06751629       1.13016763      -2.98608117       0.00000000
H       -1.70035022      -2.66002670       1.21882293       0.00000000
Si       2.49326597       1.60133959       1.72504174       0.00000000
