10
Lattice="16.290000149 0.0 0.0 0.0 16.290000149 0.0 0.0 0.0 29.1751946751" Properties=species:S:1:pos:R:3:initial_magmoms:R:1 pbc="T T T"
Si      -1.34908894      -1.34257294      -1.31372984       0.00000000
Si       1.39895263      -1.28207188       1.35696748       0.00000000
Si       1.38313504       1.33608952      -1.34051267       0.00000000
Si      -1.18397350       1.45091773       1.41140839       0.00000000
Si       2.27225954       0.60621607       2.43236516       0.00000000
Si       0.66989368       2.38303154       2.51954064       0.00000000
Si      -2.66211182       0.08438220      -2.60820405       0.00000000
Si       0.08731440      -2.67936293      -2.59227440       0.00000000
Si       0.02738349      -2.60198543       2.71338063       0.00000000
Si      -2.72080469      -2.59470380       0.11710923       0.00000000
