10
Lattice="16.290000149 0.0 0.0 0.0 16.290000149 0.0 0.0 0.0 29.1751946751" Properties=species:S:1:pos:R:3:initial_magmoms:R:1 pbc="T T T"
Si       1.34783461       1.36174627       1.35089904       0.00000000
Si      -1.34286128       1.35778780      -1.36405705       0.00000000
Si       1.35905842      -1.35537688      -1.35440006       0.00000000
Si      -1.36783059      -1.36485766       1.34453885       0.00000000
Si      -0.03345966      -2.69863400      -2.68403038       0.00000000
Si       2.69076593      -0.02158425       2.69438758       0.00000000
Si      -2.67826385      -0.01918962      -2.70882930       0.00000000
Si      -0.04083903       2.71217099       2.68490564       0.00000000
Si       2.69620679       2.70922250      -0.02774561       0.00000000
Si       2.68894145      -2.72547992       0.01803027       0.00000000
