10
Lattice="16.290000149 0.0 0.0 0.0 16.290000149 0.0 0.0 0.0 29.1751946751" Properties=species:S:1:pos:R:3:initial_magmoms:R:1 pbc="T T T"
Si       1.36026388       1.36386397      -1.34173803       0.00000000
Si      -1.35311257       1.38494323       1.33721587       0.00000000
Si       1.38699577      -1.34307793       1.34684369       0.00000000
Si      -1.35742942      -1.36298431      -1.35795944       0.00000000
Si      -2.70787043       0.03083697       2.67253536       0.00000000
Si       0.04944015      -2.79000462       2.60391530       0.00000000
Si       2.69187365       2.71887922       0.04221651       0.00000000
Si      -0.00013032       2.71668495      -2.69447510       0.00000000
Si       2.71099811       0.00296478      -2.70211901       0.00000000
Si      -2.72694602      -0.01448181      -2.69870551       0.00000000
