10
Lattice="16.290000149 0.0 0.0 0.0 16.290000149 0.0 0.0 0.0 29.1751946751" Properties=species:S:1:pos:R:3:initial_magmoms:R:1 pbc="T T T"
Si      -1.37572635       1.23878935      -1.44090451       0.00000000
Si       1.19593036      -1.40203144      -1.47573970       0.00000000
Si      -1.39464067      -1.42135138       1.27766930       0.00000000
Si       1.43389468       1.40799358       1.32233652       0.00000000
Si       2.51947658      -2.75724543      -0.13744434       0.00000000
Si      -0.06809220       2.74761804       2.56534569       0.00000000
Si      -2.78145237       2.55383219      -0.12466561       0.00000000
Si       2.73276155       2.64359009      -0.18144054       0.00000000
Si      -0.06610482      -2.50707989       2.87305647       0.00000000
Si      -0.04435767       2.63542880      -2.78413048       0.00000000
