10
Lattice="16.290000149 0.0 0.0 0.0 16.290000149 0.0 0.0 0.0 29.1751946751" Properties=species:S:1:pos:R:3:initial_magmoms:R:1 pbc="T T T"
Si      -1.15521025       0.15666093      -2.02540036       0.00000000
Si       0.22178346       1.85360654       1.43985421       0.00000000
Si       2.31379415      -0.15913701      -0.58998079       0.00000000
Si      -1.15211515      -2.06477381       0.59196470       0.00000000
H       -2.72269922       0.58839481       0.00452216       0.00000000
H       -2.18319071      -0.95071699      -1.81157536       0.00000000
Si      -3.16523337      -0.69421465       0.67657276       0.00000000
Si       1.65808907       0.67048012       2.88974468       0.00000000
Si       1.92159611      -1.97815988      -2.08007468       0.00000000
Si       0.33461289      -0.91686637      -3.45055027       0.00000000
