10
Lattice="16.290000149 0.0 0.0 0.0 16.290000149 0.0 0.0 0.0 29.1751946751" Properties=species:S:1:pos:R:3:initial_magmoms:R:1 pbc="T T T"
Si      -1.35534430      -1.34346889       1.37639816       0.00000000
Si       1.33480261       1.35127180       1.39448678       0.00000000
Si      -1.37650501       1.34702011      -1.35976830       0.00000000
Si       1.36285399      -1.37349136      -1.34999461       0.00000000
Si       2.71432127      -2.69244380       0.05808781       0.00000000
Si       2.69855255       2.71290404       0.06468141       0.00000000
Si      -2.71520093      -2.69806385       0.02226067       0.00000000
Si      -0.02321325       2.74442520      -2.68040391       0.00000000
Si       2.73005741      -0.02339244      -2.70088198       0.00000000
Si      -2.72821664       2.71655300      -0.00105031       0.00000000
