10
Lattice="16.290000149 0.0 0.0 0.0 16.290000149 0.0 0.0 0.0 29.1751946751" Properties=species:S:1:pos:R:3:initial_magmoms:R:1 pbc="T T T"
Si      -1.48713040       1.26693847       1.28913515       0.00000000
Si      -1.42692256      -1.26677557      -1.39921316       0.00000000
Si       1.29874747       1.35474157      -1.44323853       0.00000000
Si       1.27574650      -1.38572515       1.47926990       0.00000000
H        1.33331273       1.09162549       3.03836312       0.00000000
Si      -2.87490810      -0.55182376       2.04529785       0.00000000
Si      -2.77044033      -2.28402092       0.23984928       0.00000000
Si       2.51835583      -2.64033535      -0.10966956       0.00000000
Si       2.56264508       0.26727003       2.68449719       0.00000000
Si       2.64102768       2.78979285      -0.14654700       0.00000000
