10
Lattice="16.290000149 0.0 0.0 0.0 16.290000149 0.0 0.0 0.0 29.1751946751" Properties=species:S:1:pos:R:3:initial_magmoms:R:1 pbc="T T T"
H        0.53080965       0.25454754      -1.38760143       0.00000000
Si       1.68995720      -0.93217897       1.30734047       0.00000000
Si      -0.85182040       1.87567949       1.11163327       0.00000000
Si      -1.79792732      -1.59352039      -0.12049355       0.00000000
H        1.80167402       2.01315080      -0.96566977       0.00000000
H       -1.05314851       1.10990287      -2.55962735       0.00000000
H       -0.14535567      -0.67741966      -3.01286400       0.00000000
Si      -2.16244865       0.50753124       2.59790521       0.00000000
Si       2.65893527      -2.38583342      -0.20726058       0.00000000
Si       0.42437079      -2.41585589       2.63259452       0.00000000
