10
Lattice="16.290000149 0.0 0.0 0.0 16.290000149 0.0 0.0 0.0 29.1751946751" Properties=species:S:1:pos:R:3:initial_magmoms:R:1 pbc="T T T"
Si       1.32022306      -1.48900651      -1.20872540       0.00000000
Si       1.36065484       1.28273050       1.41014511       0.00000000
Si      -1.34988715      -1.39509466       1.31062852       0.00000000
Si      -1.38316762       1.32436286      -1.36546330       0.00000000
Si       2.69464295       2.62280130       0.08177515       0.00000000
Si      -2.69865029       2.64765984       0.03504233       0.00000000
Si      -2.67374288      -0.04320383       2.69539996       0.00000000
Si       0.03056004       2.70241053       2.69653779       0.00000000
Si       0.03487689      -2.75156297       2.65058686       0.00000000
Si      -2.68688891      -2.72004182      -0.09449846       0.00000000
