10
Lattice="16.290000149 0.0 0.0 0.0 16.290000149 0.0 0.0 0.0 29.1751946751" Properties=species:S:1:pos:R:3:initial_magmoms:R:1 pbc="T T T"
Si      -0.65179549       0.42461514      -2.13186649       0.00000000
Si      -1.90762418      -0.79013017       1.12235223       0.00000000
Si       0.85706578       1.93642490       1.04012778       0.00000000
Si       1.70486255      -1.66856843      -0.12651502       0.00000000
H       -1.21319776      -2.61860123      -0.79984380       0.00000000
Si       2.17209233       0.67259782       2.51274282       0.00000000
Si      -0.65875132      -2.16109658       2.53538277       0.00000000
Si       3.43067403      -0.72765802       1.14743707       0.00000000
Si       0.83893501      -3.39683644       1.25527442       0.00000000
Si      -2.35382357       2.02220804      -2.14750439       0.00000000
