10
Lattice="16.290000149 0.0 0.0 0.0 16.290000149 0.0 0.0 0.0 29.1751946751" Properties=species:S:1:pos:R:3:initial_magmoms:R:1 pbc="T T T"
Si       1.35990550      -1.35740662      -1.33954989       0.00000000
Si       1.37288863       1.34737849       1.34340101       0.00000000
Si      -1.34420194      -1.35499081       1.36604097       0.00000000
Si      -1.32988303       1.37010304      -1.37243033       0.00000000
Si       0.00182448       2.70389567       2.67635731       0.00000000
Si       2.70865235       0.01630629      -2.67679494       0.00000000
Si       0.04499298      -2.70246215       2.70074777       0.00000000
Si       0.00434943      -2.72930807      -2.67793277       0.00000000
Si      -2.68894145       2.72547992      -0.01803027       0.00000000
Si      -2.70084944      -2.71761185       0.01537533       0.00000000
