10
Lattice="16.290000149 0.0 0.0 0.0 16.290000149 0.0 0.0 0.0 29.1751946751" Properties=species:S:1:pos:R:3:initial_magmoms:R:1 pbc="T T T"
Si      -1.37806885       1.36531378       1.31279623       0.00000000
Si      -1.37865529      -1.33525873      -1.34439297       0.00000000
Si       1.35653347       1.35567010      -1.35755098       0.00000000
Si       1.34996860      -1.35275419       1.37228446       0.00000000
Si      -0.00166158       2.70690932       2.64446882       0.00000000
Si      -0.00711873      -2.68102451      -2.68260080       0.00000000
Si      -2.73181673       0.01363473       2.67475267       0.00000000
Si       2.71366967      -2.70288569       0.01913893       0.00000000
Si       0.00052128       2.72614781      -2.69642984       0.00000000
Si       2.72784197       0.01225008       2.69858881       0.00000000
