10
Lattice="16.290000149 0.0 0.0 0.0 16.290000149 0.0 0.0 0.0 29.1751946751" Properties=species:S:1:pos:R:3:initial_magmoms:R:1 pbc="T T T"
Si      -1.34197021      -1.33283152       1.37167178       0.00000000
Si       1.37205784      -1.35907471      -1.32137374       0.00000000
Si       1.35839053       1.30689784       1.39241534       0.00000000
Si      -1.35744571       1.33558453      -1.37549373       0.00000000
Si      -0.07130133       2.75151135       2.51353055       0.00000000
Si      -0.00581553      -2.72407898      -2.64767809       0.00000000
Si      -2.77596264       0.03960099       2.60403200       0.00000000
Si       2.72692974       0.01617597      -2.66273249       0.00000000
Si       2.70801704       2.69847110       0.04697206       0.00000000
Si       2.73057870      -2.68307705       0.07182933       0.00000000
