10
Lattice="16.290000149 0.0 0.0 0.0 16.290000149 0.0 0.0 0.0 29.1751946751" Properties=species:S:1:pos:R:3:initial_magmoms:R:1 pbc="T T T"
Si      -1.34425081      -1.32564763      -1.40811160       0.00000000
Si      -1.38552967       1.34905636       1.35679243       0.00000000
Si       1.35679411       1.34775316      -1.39250287       0.00000000
Si       1.38659944      -1.36997272       1.34095030       0.00000000
Si      -2.68687262      -2.67559994      -0.03830703       0.00000000
Si       2.72887965       0.06507855       2.63764182       0.00000000
Si      -2.71643897       2.66432726      -0.08752558       0.00000000
Si       0.01860318       2.71570592       2.67834122       0.00000000
Si       2.67292513      -2.72388350      -0.07095407       0.00000000
Si      -2.73833274      -0.03829779       2.70707879       0.00000000
