10
Lattice="16.290000149 0.0 0.0 0.0 16.290000149 0.0 0.0 0.0 29.1751946751" Properties=species:S:1:pos:R:3:initial_magmoms:R:1 pbc="T T T"
Si       1.34908894       1.34257294       1.31372984       0.00000000
Si      -1.31302288       1.42695514      -1.29447421       0.00000000
Si       1.43640334      -1.33678999      -1.27854456       0.00000000
Si      -1.37171575      -1.25213086       1.43083907       0.00000000
Si      -2.66310551       0.03986163      -2.61748177       0.00000000
Si       0.06849945      -2.69389361      -2.60799983       0.00000000
Si      -2.68429880      -2.68442912       0.11130337       0.00000000
Si      -0.04816953      -2.60734484       2.76913443       0.00000000
Si      -2.61200378       2.78532939       0.12244829       0.00000000
Si       0.06348213       2.75662641      -2.65030386       0.00000000
