10
Lattice="16.290000149 0.0 0.0 0.0 16.290000149 0.0 0.0 0.0 29.1751946751" Properties=species:S:1:pos:R:3:initial_magmoms:R:1 pbc="T T T"
Si       1.32467023       1.33648065       1.33740551       0.00000000
Si      -1.41705082       1.34297058      -1.25426788       0.00000000
Si       1.23180094      -1.20073249      -1.59668838       0.00000000
Si      -1.46056141      -1.43680717       1.21484052       0.00000000
Si      -2.45620622      -0.51133968      -2.20601816       0.00000000
Si      -0.71030917      -2.05330223      -2.65847350       0.00000000
Si       2.62385712       2.62678223      -0.13506365       0.00000000
Si       2.64161265      -0.09886059       2.61326595       0.00000000
Si       2.53247600      -2.73101510      -0.27842764       0.00000000
Si      -0.11802105       2.66806110       2.62050140       0.00000000
