10
Lattice="16.290000149 0.0 0.0 0.0 16.290000149 0.0 0.0 0.0 29.1751946751" Properties=species:S:1:pos:R:3:initial_magmoms:R:1 pbc="T T T"
Si       0.09065385       1.09159291       1.04129187       0.00000000
H        1.03369076       1.59721822      -1.84042963       0.00000000
Si      -2.43975332      -1.37262799      -1.04418022       0.00000000
H       -1.21362130      -2.16450608       1.74423901       0.00000000
Si      -1.52560738       0.42629301       2.61637311       0.00000000
Si      -0.44955513      -2.26756476      -2.02242449       0.00000000
Si       2.29402298       1.30937392       1.68253348       0.00000000
Si      -3.06221052      -0.30028986       1.00639834       0.00000000
Si       2.26302311       0.77286277      -2.19429557       0.00000000
Si      -0.35870580       3.23079573       0.15880058       0.00000000
