10
Lattice="16.290000149 0.0 0.0 0.0 16.290000149 0.0 0.0 0.0 29.1751946751" Properties=species:S:1:pos:R:3:initial_magmoms:R:1 pbc="T T T"
Si      -1.32467023      -1.33648065      -1.33740551       0.00000000
Si       1.31694242      -1.43534124       1.27586044       0.00000000
Si      -1.44269128       1.33158045       1.28309589       0.00000000
Si       1.29918689       1.29030159      -1.47246916       0.00000000
Si       2.63091647      -0.05126137       2.63985914       0.00000000
Si      -0.07467336       2.68052278       2.62162464       0.00000000
Si      -2.74172106       0.00648994      -2.59167339       0.00000000
Si       2.66127615       2.68544236      -0.15389915       0.00000000
Si      -0.14998203       2.67566836      -2.69951074       0.00000000
Si      -0.08141742      -2.76996466       2.61088817       0.00000000
