10
Lattice="16.290000149 0.0 0.0 0.0 16.290000149 0.0 0.0 0.0 29.1751946751" Properties=species:S:1:pos:R:3:initial_magmoms:R:1 pbc="T T T"
H        1.07789302      -1.71509267      -0.79039920       0.00000000
Si      -0.24812928       0.51292323      -2.29887347       0.00000000
Si       1.94211011       0.85256974       1.06178511       0.00000000
Si      -1.74589706       1.54196254       0.45245534       0.00000000
Si      -0.83416204      -1.99749611       1.09124331       0.00000000
Si       0.71030917       2.05330223       2.65847350       0.00000000
Si      -2.17238555      -0.84341476       2.64818924       0.00000000
Si       1.98094547      -2.45713475      -1.76648452       0.00000000
Si      -2.14586543      -0.78874552      -2.93010798       0.00000000
Si      -0.70674166       3.39627281       1.40420562       0.00000000
