10
Lattice="16.290000149 0.0 0.0 0.0 16.290000149 0.0 0.0 0.0 29.1751946751" Properties=species:S:1:pos:R:3:initial_magmoms:R:1 pbc="T T T"
Si       0.76362634      -0.85470373      -1.18322920       0.00000000
Si      -0.64329211      -2.29149803       0.05242782       0.00000000
Si       1.04795200       1.83936908       1.14124609       0.00000000
H       -1.87262446      -1.46714257       0.40629376       0.00000000
Si       2.48178152       0.38092536      -0.03232612       0.00000000
Si       0.16343757       0.34731909       2.77164349       0.00000000
Si      -1.98384509       1.45925821      -1.38340021       0.00000000
Si      -0.56490951       0.23102478      -2.77861637       0.00000000
Si      -0.53903122       2.90066259      -0.22922950       0.00000000
Si       0.71760709      -2.08064027       2.03940446       0.00000000
