10
Lattice="16.290000149 0.0 0.0 0.0 16.290000149 0.0 0.0 0.0 29.1751946751" Properties=species:S:1:pos:R:3:initial_magmoms:R:1 pbc="T T T"
Si      -1.36374994      -1.36163224       1.32980537       0.00000000
Si       1.33597549      -1.44130663      -1.28942690       0.00000000
Si      -1.38476404       1.35646831      -1.33995834       0.00000000
Si       1.37981188       1.34472322       1.35705501       0.00000000
Si       2.69180849      -0.10106316      -2.60493643       0.00000000
Si       0.01964574      -2.70010010       2.68029596       0.00000000
Si      -2.71368596       0.00366525       2.68575172       0.00000000
Si      -0.03487689       2.75156297      -2.65058686       0.00000000
Si      -2.69855255      -2.71290404      -0.06468141       0.00000000
Si      -2.70861977       2.70835913       0.04481310       0.00000000
