10
Lattice="16.290000149 0.0 0.0 0.0 16.290000149 0.0 0.0 0.0 29.1751946751" Properties=species:S:1:pos:R:3:initial_magmoms:R:1 pbc="T T T"
Si      -1.34635222       1.34480467      -1.36545746       0.00000000
Si      -1.35575155      -1.37065690       1.34611431       0.00000000
Si       1.35746200       1.34812783       1.36799570       0.00000000
Si       1.34359921      -1.30324888      -1.42427465       0.00000000
Si      -2.76848553      -0.11510514      -2.59058224       0.00000000
Si       0.11420919       2.78161184      -2.58029798       0.00000000
Si      -2.70045848       2.67398723       0.03597302       0.00000000
Si       2.69198768      -2.68807808      -0.06208481       0.00000000
Si       0.00700470      -2.71029764       2.71022971       0.00000000
Si      -2.71096553      -0.01782126       2.71215527       0.00000000
