10
Lattice="16.290000149 0.0 0.0 0.0 16.290000149 0.0 0.0 0.0 29.1751946751" Properties=species:S:1:pos:R:3:initial_magmoms:R:1 pbc="T T T"
Si       1.37013562      -1.34224714       1.35238697       0.00000000
Si       1.37717290       1.35511624      -1.33266454       0.00000000
Si      -1.31991355       1.36891387       1.38453804       0.00000000
Si      -1.36562329      -1.36262593      -1.35320388       0.00000000
Si      -0.01946655      -2.70153362       2.66524156       0.00000000
Si      -0.00500103       2.71396941      -2.65575962       0.00000000
Si       2.72787456      -0.02156796      -2.68190060       0.00000000
Si      -2.68460831       0.02402775       2.73838377       0.00000000
Si      -2.70910847       2.71638522       0.04983123       0.00000000
Si       2.72233595      -2.71233389       0.00140041       0.00000000
