10
Lattice="16.290000149 0.0 0.0 0.0 16.290000149 0.0 0.0 0.0 29.1751946751" Properties=species:S:1:pos:R:3:initial_magmoms:R:1 pbc="T T T"
Si      -1.46355877       1.20941848       1.34205896       0.00000000
Si       1.17706654       1.53438769      -1.31390489       0.00000000
Si      -0.22178346      -1.85360654      -1.43985421       0.00000000
Si       1.43630560      -1.18312642       1.44989047       0.00000000
H       -2.94448269      -1.26521173      -1.43533205       0.00000000
Si       2.09201069      -2.01274355      -2.02983499       0.00000000
Si      -2.61597854      -0.42889941       2.52444207       0.00000000
Si       2.54627363       0.19209168      -2.63997584       0.00000000
Si       3.16017858      -1.93911275       0.07352149       0.00000000
Si      -0.00624884       2.59672376       2.69085738       0.00000000
