10
Lattice="16.290000149 0.0 0.0 0.0 16.290000149 0.0 0.0 0.0 29.1751946751" Properties=species:S:1:pos:R:3:initial_magmoms:R:1 pbc="T T T"
Si      -1.38960217      -1.35928648       1.31285459       0.00000000
Si      -1.37013562       1.34224714      -1.35238697       0.00000000
Si       1.35220033      -1.37008675      -1.35098656       0.00000000
Si       1.37681452       1.36599796       1.33695330       0.00000000
Si       2.77184127      -0.08493606       2.53039381       0.00000000
Si       0.00703728       2.69736338      -2.68505152       0.00000000
Si      -0.06949314      -2.79992523       2.58897760       0.00000000
Si      -2.69004917       2.71116101       0.03215106       0.00000000
Si      -2.68029146       0.00897579       2.72516741       0.00000000
Si       2.72725553      -0.02782332      -2.69354150       0.00000000
