10
Lattice="16.290000149 0.0 0.0 0.0 16.290000149 0.0 0.0 0.0 29.1751946751" Properties=species:S:1:pos:R:3:initial_magmoms:R:1 pbc="T T T"
Si      -1.35868375      -0.57221884      -0.27436353       0.00000000
H        0.90779284      -1.78732253      -0.45323665       0.00000000
H        1.58395816      -0.85535533       1.17202592       0.00000000
Si       1.05314851      -1.10990287       2.55962735       0.00000000
Si      -2.72789084       0.77007718       1.05170742       0.00000000
Si      -1.82988830      -0.15727995      -2.48753545       0.00000000
Si       2.04550274      -1.83392822      -1.45231202       0.00000000
Si      -1.18819261       2.08303490       2.24123845       0.00000000
Si      -0.00289962       1.13787280      -3.12448830       0.00000000
Si      -1.81294670      -2.77705407       0.33577732       0.00000000
