10
Lattice="16.290000149 0.0 0.0 0.0 16.290000149 0.0 0.0 0.0 29.1751946751" Properties=species:S:1:pos:R:3:initial_magmoms:R:1 pbc="T T T"
Si      -0.38183760      -0.64459531      -2.22373334       0.00000000
Si      -1.99257653      -0.59655610       1.17126737       0.00000000
Si       0.76528792       2.04302666       1.00829473       0.00000000
Si       1.48335112      -1.87170473       0.35255305       0.00000000
H       -2.23404320       2.08801964      -0.25052740       0.00000000
Si       1.79115068       0.70833808       2.62518402       0.00000000
H        2.74812303       1.95501179      -0.04846000       0.00000000
Si      -2.14242824      -2.13338729      -1.88935643       0.00000000
Si      -1.06650631      -1.64043560       3.00592031       0.00000000
H       -0.45436068       3.29354481      -1.35136584       0.00000000
