10
Lattice="16.290000149 0.0 0.0 0.0 16.290000149 0.0 0.0 0.0 29.1751946751" Properties=species:S:1:pos:R:3:initial_magmoms:R:1 pbc="T T T"
H        1.98283511      -0.08801487      -1.05675473       0.00000000
Si       1.02586276      -1.33468858       1.61688929       0.00000000
Si       0.76642822       1.86839786      -1.28149125       0.00000000
Si      -0.76528792      -2.04302666      -1.00829473       0.00000000
Si      -1.07114896       1.11042415       1.86639555       0.00000000
H       -1.21964860       1.25051815      -2.35966057       0.00000000
H       -2.99933112       0.04499298      -1.25882212       0.00000000
H       -1.87022234       1.67358575      -2.40753706       0.00000000
H        2.33069177      -0.78249016       2.52479217       0.00000000
Si      -1.01473669       3.41853798      -0.64978994       0.00000000
