10
Lattice="16.290000149 0.0 0.0 0.0 16.290000149 0.0 0.0 0.0 29.1751946751" Properties=species:S:1:pos:R:3:initial_magmoms:R:1 pbc="T T T"
Si      -1.23852871       1.36572103       1.41695168       0.00000000
Si       1.32001129      -1.37368684       1.33835371       0.00000000
Si       1.34885169       1.40879179      -1.30859501       0.00000000
Si      -1.38886912      -1.35804844      -1.32992207       0.00000000
H       -1.88535575       0.54030672       2.49427492       0.00000000
Si       2.61072176       0.03881907       2.65252117       0.00000000
Si      -2.81720892       2.45369756       0.09674495       0.00000000
Si      -0.08988822       2.76089439      -2.59288708       0.00000000
Si      -0.00503361      -2.70101234      -2.66617517       0.00000000
Si       2.68846090       0.04847904      -2.68102534       0.00000000
