10
Lattice="16.290000149 0.0 0.0 0.0 16.290000149 0.0 0.0 0.0 29.1751946751" Properties=species:S:1:pos:R:3:initial_magmoms:R:1 pbc="T T T"
Si      -1.41491683      -1.32660874       1.23872042       0.00000000
Si       1.36228384      -1.36990756      -1.26206057       0.00000000
Si       1.23012307       1.13746555       1.62567102       0.00000000
Si      -1.39502674       1.45093402      -1.19344051       0.00000000
Si      -0.37211247       1.06517053       3.41600684       0.00000000
Si       2.69983946       0.07701912      -2.51913218       0.00000000
Si      -2.49790862       0.09337428       2.73654573       0.00000000
Si      -0.05761773      -2.67954212      -2.57654897       0.00000000
Si       2.52639983       2.72663651       0.34692224       0.00000000
Si      -0.12085551      -2.62124021       2.66556249       0.00000000
