10
Lattice="16.290000149 0.0 0.0 0.0 16.290000149 0.0 0.0 0.0 29.1751946751" Properties=species:S:1:pos:R:3:initial_magmoms:R:1 pbc="T T T"
Si       1.35008263       1.38709351       1.32300755       0.00000000
Si      -1.33829682       1.35879778      -1.36431963       0.00000000
Si       1.38867364      -1.35042472      -1.33400660       0.00000000
Si      -1.35103234      -1.36498798       1.36429045       0.00000000
Si       2.66310551      -0.03986163       2.61748177       0.00000000
Si      -2.66664044       2.70738173       0.03045890       0.00000000
Si       0.04083903      -2.71217099      -2.68490564       0.00000000
Si      -2.69035868       0.00645084      -2.72578009       0.00000000
Si      -2.69275331      -2.72580572       0.00954029       0.00000000
Si       0.02037879       2.71236647      -2.72560504       0.00000000
