10
Lattice="16.290000149 0.0 0.0 0.0 16.290000149 0.0 0.0 0.0 29.1751946751" Properties=species:S:1:pos:R:3:initial_magmoms:R:1 pbc="T T T"
Si       1.32023447      -1.33635016      -1.40729469       0.00000000
Si       1.39099985       1.37746612       1.31157088       0.00000000
Si      -1.33977106       1.36518346      -1.37671909       0.00000000
Si      -1.35679411      -1.34775316       1.39250287       0.00000000
Si      -0.01472616       2.69250896       2.62780978       0.00000000
Si       2.65007351      -2.69565293      -0.04280001       0.00000000
Si      -2.70104492      -2.67340079      -0.01560873       0.00000000
Si      -2.72360657       2.70814736      -0.04046599       0.00000000
Si       2.67126680       0.02863782      -2.77158514       0.00000000
Si       0.02980532      -2.71772588       2.73345316       0.00000000
