10
Lattice="10.86 0.0 0.0 0.0 10.86 0.0 0.0 0.0 10.86" Properties=species:S:1:pos:R:3:initial_magmoms:R:1 pbc="T T T"
Si       1.35750000       1.35750000       1.35750000       0.00000000
Si      -1.35750000       1.35750000      -1.35750000       0.00000000
Si      -1.35750000      -1.35750000       1.35750000       0.00000000
Si       1.35750000      -1.35750000      -1.35750000       0.00000000
Si      -2.04337416       2.71940916       0.79805796       0.00000000
Si       2.59240146       2.58232338       0.11869980       0.00000000
Si      -2.71642266      -2.53491948       0.06865692       0.00000000
Si       0.16760238       3.72997560      -0.12932088       0.00000000
Si       2.64540912      -2.68670970       0.21371394       0.00000000
Si       0.11224896      -2.76194778      -2.57987988       0.00000000
