10
Lattice="10.86 0.0 0.0 0.0 10.86 0.0 0.0 0.0 10.86" Properties=species:S:1:pos:R:3:initial_magmoms:R:1 pbc="T T T"
Si      -1.23490146      -1.22482338       1.23880020       0.00000000
Si       1.48009854      -1.22482338      -1.47619980       0.00000000
Si       1.48009854       1.49017662       1.23880020       0.00000000
Si      -2.42479908       1.14765222      -0.24802068       0.00000000
Si      -2.68232226       0.37366002       2.42208408       0.00000000
Si      -2.59240146      -2.58232338      -0.11869980       0.00000000
Si       0.12259854      -2.58232338       2.59630020       0.00000000
Si       0.12259854      -2.58232338      -2.83369980       0.00000000
Si       2.83759854      -2.58232338      -0.11869980       0.00000000
Si       2.83759854       0.13267662       2.59630020       0.00000000
