10
Lattice="10.86 0.0 0.0 0.0 10.86 0.0 0.0 0.0 10.86" Properties=species:S:1:pos:R:3:initial_magmoms:R:1 pbc="T T T"
Si       1.32432270      -1.26421260      -1.23389148       0.00000000
Si      -1.39067730       1.45078740      -1.23389148       0.00000000
Si      -1.39067730      -1.26421260       1.48110852       0.00000000
Si       1.29045036       1.38132684       1.55540178       0.00000000
Si      -0.03317730      -2.62171260      -2.59139148       0.00000000
Si       2.60359812      -2.61431694       0.11620200       0.00000000
Si       2.68182270       0.09328740      -2.59139148       0.00000000
Si      -2.74817730       0.09328740      -2.59139148       0.00000000
Si      -2.74817730      -2.62171260       0.12360852       0.00000000
Si      -0.03317730       2.80828740      -2.59139148       0.00000000
