10
Lattice="10.86 0.0 0.0 0.0 10.86 0.0 0.0 0.0 10.86" Properties=species:S:1:pos:R:3:initial_magmoms:R:1 pbc="T T T"
Si       1.35892266       1.17741948       1.28884308       0.00000000
Si      -1.35607734       1.17741948      -1.42615692       0.00000000
Si      -1.35607734      -1.53758052       1.28884308       0.00000000
Si       1.32505032      -1.60704108      -1.35186366       0.00000000
Si       0.00142266       2.53491948       2.64634308       0.00000000
Si      -2.71357734       2.53491948      -0.06865692       0.00000000
Si       2.71642266       2.53491948      -0.06865692       0.00000000
Si       0.00142266       2.53491948      -2.78365692       0.00000000
Si      -2.71357734      -0.18008052       2.64634308       0.00000000
Si       2.69930730      -0.09391728       2.76770358       0.00000000
