10
Lattice="10.86 0.0 0.0 0.0 10.86 0.0 0.0 0.0 10.86" Properties=species:S:1:pos:R:3:initial_magmoms:R:1 pbc="T T T"
Si       1.52010678      -1.14108192      -1.16798214       0.00000000
Si      -1.19489322      -1.14108192       1.54701786       0.00000000
Si      -1.19489322       1.57391808      -1.16798214       0.00000000
Si       0.16260678      -2.49858192      -2.52548214       0.00000000
Si      -2.55239322      -2.49858192       0.18951786       0.00000000
Si      -2.55239322       0.21641808      -2.52548214       0.00000000
Si       0.34170990       2.87462028      -2.47098666       0.00000000
Si       2.87760678      -2.49858192       0.18951786       0.00000000
Si       0.16260678      -2.49858192       2.90451786       0.00000000
Si      -2.55239322       0.21641808       2.90451786       0.00000000
