10
Lattice="10.86 0.0 0.0 0.0 10.86 0.0 0.0 0.0 10.86" Properties=species:S:1:pos:R:3:initial_magmoms:R:1 pbc="T T T"
Si       1.50343668      -1.13017848      -1.09459026       0.00000000
Si      -1.21156332       1.58482152      -1.09459026       0.00000000
Si      -1.21156332      -1.13017848       1.62040974       0.00000000
Si       0.14593668      -2.48767848      -2.45209026       0.00000000
Si      -2.56906332       0.22732152      -2.45209026       0.00000000
Si      -2.56906332      -2.48767848       0.26290974       0.00000000
Si       2.81339160       0.23569458      -2.38057716       0.00000000
Si       2.86093668      -2.48767848       0.26290974       0.00000000
Si       0.14593668      -2.48767848       2.97790974       0.00000000
Si      -2.56906332       2.94232152       0.26290974       0.00000000
