10
Lattice="10.86 0.0 0.0 0.0 10.86 0.0 0.0 0.0 10.86" Properties=species:S:1:pos:R:3:initial_magmoms:R:1 pbc="T T T"
Si      -1.27691880       1.40749944      -1.29005940       0.00000000
Si      -1.27691880      -1.30750056       1.42494060       0.00000000
Si       1.43808120       1.40749944       1.42494060       0.00000000
Si      -2.63441880       0.04999944      -2.64755940       0.00000000
Si      -2.63441880      -2.66500056       0.06744060       0.00000000
Si       2.80384566      -0.22911342      -2.48410554       0.00000000
Si       0.10130208       2.68442910      -2.64321540       0.00000000
Si      -2.63441880       2.76499944       0.06744060       0.00000000
Si      -2.63441880       0.04999944       2.78244060       0.00000000
Si       0.08058120      -2.66500056       2.78244060       0.00000000
