10
Lattice="10.86 0.0 0.0 0.0 10.86 0.0 0.0 0.0 10.86" Properties=species:S:1:pos:R:3:initial_magmoms:R:1 pbc="T T T"
Si      -1.30995492      -1.36587306       1.28598690       0.00000000
Si      -1.30995492       1.34912694      -1.42901310       0.00000000
Si       1.40504508      -1.36587306      -1.42901310       0.00000000
Si      -2.81339160      -0.23569458       2.38057716       0.00000000
Si       0.05580954       2.42751408       2.80694076       0.00000000
Si       2.68402728       2.61615228      -0.00157470       0.00000000
Si       2.67301524       0.10525512       2.66167740       0.00000000
Si       0.04754508      -2.72337306       2.64348690       0.00000000
Si      -2.66745492      -2.72337306      -0.07151310       0.00000000
Si      -2.66745492      -0.00837306      -2.78651310       0.00000000
