10
Lattice="16.2900001489832 0.0 0.0 0.0 16.2900001489832 0.0 0.0 0.0 29.18601123518865" Properties=species:S:1:pos:R:3:initial_magmoms:R:1 pbc="T T T"
H       -1.06144012       1.01961392      -0.43600982       0.00000000
Si       1.47864331       1.31759223       1.29864616       0.00000000
Si       0.94203442      -0.99522127      -1.93777603       0.00000000
Si      -1.24558228      -1.45881838       1.39987201       0.00000000
Si       0.02624319       2.66722688       2.62143208       0.00000000
Si      -2.66522321      -0.01822851       2.65040211       0.00000000
Si      -2.16156899      -3.22895496       0.11461347       0.00000000
Si       2.11540313       0.57987676      -3.22508343       0.00000000
Si       2.74651032       2.76913713      -0.11259963       0.00000000
Si       2.80906392      -0.09363492       2.71669522       0.00000000
