10
Lattice="16.2900001489832 0.0 0.0 0.0 16.2900001489832 0.0 0.0 0.0 29.18601123518865" Properties=species:S:1:pos:R:3:initial_magmoms:R:1 pbc="T T T"
Si      -1.39742137       1.44549153       1.25248849       0.00000000
Si       1.36705681       1.28650113      -1.45171220       0.00000000
Si      -1.29945331      -1.30662254      -1.49820551       0.00000000
Si       1.32812371      -1.36544573       1.42839258       0.00000000
Si      -2.62977617      -2.69508441      -0.12266881       0.00000000
Si      -2.66608658       2.70449678      -0.26252817       0.00000000
Si       2.78964624       2.61457597      -0.07728456       0.00000000
Si       2.73476523      -2.72041536       0.00189709       0.00000000
Si       0.11435580      -2.65836675      -2.81898927       0.00000000
Si       2.72122823      -0.07659232      -2.83682192       0.00000000
