10
Lattice="16.2900001489832 0.0 0.0 0.0 16.2900001489832 0.0 0.0 0.0 29.18601123518865" Properties=species:S:1:pos:R:3:initial_magmoms:R:1 pbc="T T T"
Si      -1.26866521       1.25900524      -1.51501666       0.00000000
Si      -1.76696003      -0.95356774       1.25514441       0.00000000
Si       1.39742137      -1.44549153      -1.25248849       0.00000000
Si       1.02221380       1.73279990       1.27837648       0.00000000
Si      -2.54361836       2.48055977       0.04170681       0.00000000
Si       2.76227904       2.57512322      -0.08139979       0.00000000
Si      -2.61786818      -2.73180044      -0.07109712       0.00000000
Si      -0.82422514       3.42813279       1.37483625       0.00000000
Si      -3.53574453       0.68983264       1.26579731       0.00000000
Si       0.12608460       2.61785189      -2.82970053       0.00000000
