10
Lattice="16.2900001489832 0.0 0.0 0.0 16.2900001489832 0.0 0.0 0.0 29.18601123518865" Properties=species:S:1:pos:R:3:initial_magmoms:R:1 pbc="T T T"
Si       1.06937335      -1.36451557       1.59808005       0.00000000
Si      -0.85234168      -1.50030901      -1.60704015       0.00000000
Si       1.96946102       0.80242912      -1.08618659       0.00000000
Si      -1.46373796       1.17514432       1.48769855       0.00000000
Si       2.18901764      -2.58305645      -0.11417568       0.00000000
H       -0.01901043       1.64268362      -3.07495059       0.00000000
Si      -2.02572668      -2.85597912      -0.08525234       0.00000000
Si       0.26469621       1.83961343       3.00837729       0.00000000
Si       2.02613393       0.23188815       3.05921933       0.00000000
Si       2.96277636       2.30783690       0.33704006       0.00000000
