10
Lattice="16.2900001489832 0.0 0.0 0.0 16.2900001489832 0.0 0.0 0.0 29.18601123518865" Properties=species:S:1:pos:R:3:initial_magmoms:R:1 pbc="T T T"
Si      -0.60385402       0.53248752       1.28336729       0.00000000
H        1.50324121       0.28885428      -1.69652446       0.00000000
H       -0.59311891      -2.17108235      -0.49502394       0.00000000
H        1.51264054      -1.72121771      -0.25137911       0.00000000
Si      -0.51948810      -1.25833735       2.85097714       0.00000000
Si      -2.94588363       0.85643047       1.00464088       0.00000000
Si       0.38486754       2.56259621       1.95604647       0.00000000
Si       1.57374433       1.67469347      -2.29542141       0.00000000
Si      -1.12632319      -2.84346840      -1.76657089       0.00000000
H       -0.63742771      -2.71406063       2.29250281       0.00000000
