10
Lattice="16.2900001489832 0.0 0.0 0.0 16.2900001489832 0.0 0.0 0.0 29.18601123518865" Properties=species:S:1:pos:R:3:initial_magmoms:R:1 pbc="T T T"
Si      -1.24778143      -1.30629511       1.44755319       0.00000000
Si      -1.59123979       0.76678660      -1.56895241       0.00000000
Si       1.46655613       1.43801605       1.20477228       0.00000000
Si       0.42823152      -1.63478296      -1.71327723       0.00000000
Si      -0.34153614      -0.10928961      -3.33928829       0.00000000
Si      -2.59669118      -2.47998962      -0.09467942       0.00000000
Si      -2.57983103       0.19477953       2.67082356       0.00000000
Si       0.27398151      -2.66541869       2.62395667       0.00000000
Si      -3.44166978      -0.69424723      -1.36225707       0.00000000
Si       0.15517854       2.77185756       2.67330437       0.00000000
