10
Lattice="16.2900001489832 0.0 0.0 0.0 16.2900001489832 0.0 0.0 0.0 29.18601123518865" Properties=species:S:1:pos:R:3:initial_magmoms:R:1 pbc="T T T"
Si       1.24778143       1.30629511      -1.44755319       0.00000000
Si      -1.33204960       1.50107464       1.22327037       0.00000000
Si       1.52176294      -1.35912358       1.17640347       0.00000000
Si      -1.34890975      -1.17369451      -1.54223261       0.00000000
Si       1.67601296      -0.32848785      -3.16083042       0.00000000
Si      -2.19388835       0.61204789      -2.80981027       0.00000000
Si      -0.34345836       2.07308171      -3.01650560       0.00000000
Si       0.08609265      -2.70617627       2.48692542       0.00000000
Si      -2.65732256       0.11297115       2.58974774       0.00000000
Si       0.16812909      -2.20397186      -2.99085109       0.00000000
