10
Lattice="16.2900001489832 0.0 0.0 0.0 16.2900001489832 0.0 0.0 0.0 29.18601123518865" Properties=species:S:1:pos:R:3:initial_magmoms:R:1 pbc="T T T"
Si       1.29772657       1.40211289       1.39585017       0.00000000
Si       1.37536471      -1.24102108      -1.49484912       0.00000000
Si      -1.37643985       1.42789996      -1.33741978       0.00000000
Si      -0.91808812      -1.79385482       1.32127991       0.00000000
Si       2.66841605      -2.64686438      -0.13495612       0.00000000
Si       2.71221986      -0.06387309       2.61112650       0.00000000
Si      -2.63748134      -2.74142784      -0.01184952       0.00000000
Si       0.92835082      -3.48918771       1.22482015       0.00000000
Si       2.68840388       2.72940581      -0.02606311       0.00000000
Si      -0.22503006       2.71059086       2.71091347       0.00000000
