10
Lattice="16.2900001489832 0.0 0.0 0.0 16.2900001489832 0.0 0.0 0.0 29.18601123518865" Properties=species:S:1:pos:R:3:initial_magmoms:R:1 pbc="T T T"
Si       0.73484191      -0.60139585       2.16595227       0.00000000
Si       1.76696003       0.95356774      -1.25514441       0.00000000
Si      -0.85090816      -1.77823271      -1.32624154       0.00000000
Si      -1.76878451       1.64340038       0.01065289       0.00000000
Si       0.49829481       2.21257298      -2.77016107       0.00000000
Si      -2.21255669      -0.53042032      -2.77156200       0.00000000
Si       1.43132086      -2.83227717       1.83953592       0.00000000
Si      -0.77665834       3.43412751      -1.21343760       0.00000000
Si      -2.15053251      -3.19916055       0.01208301       0.00000000
Si      -3.52085547       0.80431876      -1.34924011       0.00000000
