10
Lattice="16.2900001489832 0.0 0.0 0.0 16.2900001489832 0.0 0.0 0.0 29.18601123518865" Properties=species:S:1:pos:R:3:initial_magmoms:R:1 pbc="T T T"
Si       1.03189006       0.86837104      -0.70650577       0.00000000
Si      -1.55383795      -0.31532553       2.12897359       0.00000000
Si       1.95043430       1.26100891       1.57651158       0.00000000
Si      -0.29414853      -2.29415330       1.78568773       0.00000000
Si      -0.18458199       1.56369340       2.50588174       0.00000000
Si       2.03149334      -0.75157174      -2.12398278       0.00000000
Si      -2.81367399      -1.25097427       0.17447398       0.00000000
Si      -0.42301872       2.01396530      -2.31316651       0.00000000
Si      -1.21282309      -2.96881995      -0.32244705       0.00000000
Si       0.32444793      -2.48002220      -2.10504106       0.00000000
