10
Lattice="16.2900001489832 0.0 0.0 0.0 16.2900001489832 0.0 0.0 0.0 29.18601123518865" Properties=species:S:1:pos:R:3:initial_magmoms:R:1 pbc="T T T"
Si       0.70348366      -0.37261746      -2.18652840       0.00000000
Si      -1.67783744       1.65123587      -0.18229583       0.00000000
Si      -0.47302902      -2.19044139       0.86422698       0.00000000
Si       1.70590511       1.02635146       1.40408063       0.00000000
Si       1.71942581      -2.46094173       1.56947775       0.00000000
Si      -0.51491061       3.56850372       0.53903644       0.00000000
Si      -1.25354809      -1.19992141      -3.33082435       0.00000000
Si       0.57572119       2.83214685       2.45346366       0.00000000
Si      -3.30162465       1.21761235       1.53562198       0.00000000
Si       2.46431864      -2.08055882      -2.15051287       0.00000000
