10
Lattice="16.2900001489832 0.0 0.0 0.0 16.2900001489832 0.0 0.0 0.0 29.18601123518865" Properties=species:S:1:pos:R:3:initial_magmoms:R:1 pbc="T T T"
Si      -0.60090553       0.73521658      -2.12469477       0.00000000
Si      -1.82029349      -0.74657071       1.33204678       0.00000000
Si       0.94245796       1.84327868       1.17021910       0.00000000
Si       1.67031146      -1.80263513      -0.13560974       0.00000000
Si       2.26286021       0.52921323       2.60488083       0.00000000
Si      -0.55524466      -2.24733584       2.62274267       0.00000000
Si       1.35338950       1.56566449      -3.14967830       0.00000000
Si       3.49016511      -0.91531882       1.19083026       0.00000000
Si       0.75613294      -3.58117734       1.15421058       0.00000000
Si      -3.66083544      -1.50390910       0.08530969       0.00000000
