10
Lattice="16.2900001489832 0.0 0.0 0.0 16.2900001489832 0.0 0.0 0.0 29.18601123518865" Properties=species:S:1:pos:R:3:initial_magmoms:R:1 pbc="T T T"
Si       0.90159775      -1.60415125      -1.37807589       0.00000000
Si      -2.30049500       0.29584269      -0.30292161       0.00000000
Si       0.90914002       2.05519529      -0.68762242       0.00000000
Si       0.79553356      -0.56557252       2.14917031       0.00000000
H       -1.26622660       1.71097130       2.03271812       0.00000000
Si      -2.62406327       1.03974184       1.87496773       0.00000000
Si       2.21797637       2.54935244       1.21796143       0.00000000
Si       1.14329248       1.63908352       3.14496783       0.00000000
Si       0.35472290      -1.11485503      -3.56168570       0.00000000
Si      -2.56375769       2.09100071      -1.84966346       0.00000000
