10
Lattice="16.2900001489832 0.0 0.0 0.0 16.2900001489832 0.0 0.0 0.0 29.18601123518865" Properties=species:S:1:pos:R:3:initial_magmoms:R:1 pbc="T T T"
Si       0.34077051       2.26794269      -0.63993248       0.00000000
Si       1.05451687      -1.71650990      -1.35644906       0.00000000
Si       0.63001576      -0.19362294       2.38726979       0.00000000
Si      -2.40103199      -0.44732340      -0.46388246       0.00000000
Si      -1.44954937       0.67404763       3.18378522       0.00000000
Si       0.80599663      -2.60830595       2.36610993       0.00000000
Si      -3.12861345      -0.24635367       1.80509642       0.00000000
Si      -2.09419355      -2.92627535      -0.73493295       0.00000000
Si       2.25981398      -2.93433890       0.24910261       0.00000000
Si      -1.23465169       2.58541850      -2.37536190       0.00000000
