10
Lattice="16.2900001489832 0.0 0.0 0.0 16.2900001489832 0.0 0.0 0.0 29.18601123518865" Properties=species:S:1:pos:R:3:initial_magmoms:R:1 pbc="T T T"
Si       1.36539523       1.41706711       1.27093405       0.00000000
Si      -1.56978586      -0.43204338       1.75381660       0.00000000
Si      -1.13417497       1.65064943      -1.41210678       0.00000000
Si       0.98974783      -2.21325716      -0.43983319       0.00000000
H        1.75474253       0.61761907       2.48267886       0.00000000
H        3.06260148       0.09896175      -1.22867270       0.00000000
Si      -2.22347099       1.90195526       2.00656746       0.00000000
Si       0.26515233      -2.17100090      -2.83720134       0.00000000
Si      -0.15165990       2.97250149       2.18066202       0.00000000
Si      -0.11487708      -1.57763764       3.36047733       0.00000000
