10
Lattice="16.2900001489832 0.0 0.0 0.0 16.2900001489832 0.0 0.0 0.0 29.18601123518865" Properties=species:S:1:pos:R:3:initial_magmoms:R:1 pbc="T T T"
Si      -1.34835589      -1.38545963       1.32977304       0.00000000
Si       1.43234713      -1.27785766      -1.35055932       0.00000000
Si      -1.22258080       1.32879160      -1.53524256       0.00000000
Si       1.41815854       1.36752922       1.33377153       0.00000000
Si       0.63068365       2.16666776      -2.79759592       0.00000000
Si       2.41921163       0.38203308      -2.70758626       0.00000000
Si      -2.58734072       2.67050117      -0.07811344       0.00000000
Si      -2.64621278      -2.69035868      -0.17257397       0.00000000
Si      -2.70252731      -0.02236617       2.71488277       0.00000000
Si       0.02267568      -2.74061333       2.69637883       0.00000000
