10
Lattice="16.2900001489832 0.0 0.0 0.0 16.2900001489832 0.0 0.0 0.0 29.18601123518865" Properties=species:S:1:pos:R:3:initial_magmoms:R:1 pbc="T T T"
Si      -0.23824125       0.58228606       2.30572407       0.00000000
Si      -2.09047943      -1.06315057      -0.53352029       0.00000000
Si       1.94466764      -1.41323896      -0.16049388       0.00000000
Si       0.12267999       2.13009671      -1.17441591       0.00000000
Si       1.85772791       1.33237540       2.89087441       0.00000000
Si      -2.12729483       2.94884841      -0.74576096       0.00000000
Si      -3.50813298       0.79304608      -1.05813884       0.00000000
Si      -1.66312919      -2.60496650      -2.27718015       0.00000000
Si      -3.05836608      -1.82882945       1.49441133       0.00000000
Si       2.80075602      -1.47224134      -2.36432958       0.00000000
