10
Lattice="16.2900001489832 0.0 0.0 0.0 16.2900001489832 0.0 0.0 0.0 29.18601123518865" Properties=species:S:1:pos:R:3:initial_magmoms:R:1 pbc="T T T"
Si      -1.65586223       1.10222865      -1.13489805       0.00000000
Si       1.56571336       1.29871863       1.14079362       0.00000000
Si       1.52471143      -1.10687456      -1.38402984       0.00000000
Si      -1.17336871      -1.57509803       1.28730740       0.00000000
H       -1.14797260       1.26615492      -2.57076224       0.00000000
H        2.45918729      -0.08862086      -1.99249980       0.00000000
Si       2.54236403      -2.35237539       0.31316590       0.00000000
Si       0.58806901      -3.18282331       1.33814943       0.00000000
Si       3.33503544      -0.29485063       1.19175240       0.00000000
Si      -2.90180289      -2.23956714      -0.23337135       0.00000000
