10
Lattice="16.2900001489832 0.0 0.0 0.0 16.2900001489832 0.0 0.0 0.0 29.18601123518865" Properties=species:S:1:pos:R:3:initial_magmoms:R:1 pbc="T T T"
Si       1.31015584      -1.20795238       1.55287675       0.00000000
Si       1.45269334       1.21424032      -1.43162930       0.00000000
Si      -0.85802689      -1.83822878      -1.26763311       0.00000000
Si      -1.41227785       1.39701412       1.35293506       0.00000000
Si       2.61592967      -2.60398910       0.18841030       0.00000000
Si       2.57856041       2.78912496       0.01556782       0.00000000
Si      -2.71129133      -2.67610493      -0.00527975       0.00000000
Si      -0.07055199      -2.63736731       2.86373434       0.00000000
Si       2.94133872      -0.38727846      -2.54069773       0.00000000
Si      -2.73439055       0.05672178       2.80489534       0.00000000
