10
Lattice="16.2900001489832 0.0 0.0 0.0 16.2900001489832 0.0 0.0 0.0 29.18601123518865" Properties=species:S:1:pos:R:3:initial_magmoms:R:1 pbc="T T T"
Si       1.18874647      -1.76477717      -0.97752707       0.00000000
Si      -1.09791343       1.11138526      -1.75644334       0.00000000
Si      -1.33468858      -1.48312306       1.29571297       0.00000000
Si       0.94501549       1.82734706       1.23979257       0.00000000
Si      -2.49813668       2.37457703      -0.41578392       0.00000000
Si       2.57593772      -2.51784758       0.74727863       0.00000000
Si      -2.15759423      -0.59303746      -3.03581214       0.00000000
Si      -0.90855847       3.48653244       1.15185512       0.00000000
Si       2.96885253       2.38909142       0.09929081       0.00000000
Si       1.90853642       0.82663606       3.21238751       0.00000000
