10
Lattice="16.2900001489832 0.0 0.0 0.0 16.2900001489832 0.0 0.0 0.0 29.18601123518865" Properties=species:S:1:pos:R:3:initial_magmoms:R:1 pbc="T T T"
Si      -1.44611218       1.35702217       1.27011684       0.00000000
Si      -1.39955536      -1.29855736      -1.41228190       0.00000000
Si       1.33538905       1.45197658      -1.32670851       0.00000000
Si       1.42778593      -1.29622789       1.41922817       0.00000000
Si       2.73768114      -2.55554264      -0.10568255       0.00000000
Si      -0.12043197       2.87261121       2.49616280       0.00000000
Si      -2.77917177      -0.09528021       2.62461043       0.00000000
Si      -0.06058251      -2.64319913      -2.80909521       0.00000000
Si      -2.75867895      -2.70501968      -0.05355633       0.00000000
Si       2.69379587       0.16654896      -2.78793535       0.00000000
