10
Lattice="16.2900001489832 0.0 0.0 0.0 16.2900001489832 0.0 0.0 0.0 29.18601123518865" Properties=species:S:1:pos:R:3:initial_magmoms:R:1 pbc="T T T"
H        0.60385402      -0.53248752      -1.28336729       0.00000000
Si       0.98872156       2.03010869       0.67267919       0.00000000
Si      -2.34202961       0.32394294      -0.27872641       0.00000000
Si       0.08436591      -1.79082488       1.56760985       0.00000000
H        0.01073511      -2.70356987      -1.77839122       0.00000000
H       -0.03357369      -3.24654816       1.00913552       0.00000000
H        2.11649456      -2.25370523      -1.53474640       0.00000000
H        2.10709523      -0.24363324      -2.97989175       0.00000000
Si       0.65529784       1.92617849       3.08464034       0.00000000
Si      -1.85121191      -1.43327566       2.86484049       0.00000000
