10
Lattice="16.2900001489832 0.0 0.0 0.0 16.2900001489832 0.0 0.0 0.0 29.18601123518865" Properties=species:S:1:pos:R:3:initial_magmoms:R:1 pbc="T T T"
Si      -1.40734198       1.19980738       1.39693006       0.00000000
Si       1.39193164      -1.31913163       1.34582535       0.00000000
Si      -1.38333052      -1.35695701      -1.35037837       0.00000000
Si       1.38406357       1.42483744      -1.32265166       0.00000000
Si       2.65971719      -2.56163510      -0.15792551       0.00000000
Si      -0.00739566       2.50251869       2.77091991       0.00000000
Si      -2.66841605       0.05176962      -2.76937305       0.00000000
Si      -0.01982493      -2.69519681      -2.74771703       0.00000000
Si      -0.03341079       2.81574282      -2.62846299       0.00000000
Si      -2.77400784      -2.68424993       0.07153491       0.00000000
