10
Lattice="16.2900001489832 0.0 0.0 0.0 16.2900001489832 0.0 0.0 0.0 29.18601123518865" Properties=species:S:1:pos:R:3:initial_magmoms:R:1 pbc="T T T"
Si      -1.20529711       1.21782901      -1.60555166       0.00000000
Si       1.76968046       1.51921030       0.41779775       0.00000000
Si       0.62625277      -2.26026521      -0.60844078       0.00000000
Si      -1.45381735       0.32603295       2.11700732       0.00000000
Si       0.09990657      -1.41259245       2.85293260       0.00000000
Si       1.35422029      -2.92475061       1.47333903       0.00000000
Si       0.47840472       2.19475661      -2.90502963       0.00000000
Si      -3.49309731      -0.43840626       1.12754317       0.00000000
Si      -2.25981398       2.93433890      -0.24910261       0.00000000
Si       3.75564324       0.19668709       0.37941815       0.00000000
