10
Lattice="16.2900001489832 0.0 0.0 0.0 16.2900001489832 0.0 0.0 0.0 29.18601123518865" Properties=species:S:1:pos:R:3:initial_magmoms:R:1 pbc="T T T"
Si      -1.32584311      -1.36032904      -1.36428842       0.00000000
Si       1.36643779      -1.36746406       1.34594209       0.00000000
Si      -1.41512860       1.30473127       1.37871798       0.00000000
Si       1.35775522       1.34389243      -1.39989535       0.00000000
Si       2.67201614       2.69535809       0.01576045       0.00000000
Si      -0.03547962       2.63508671       2.73300728       0.00000000
Si      -0.06102234      -2.71024877       2.67116212       0.00000000
Si       2.67704975      -2.75261907      -0.08382222       0.00000000
Si      -0.00545715       2.76748695      -2.66822017       0.00000000
Si      -2.78616018       2.65988498       0.01211219       0.00000000
