10
Lattice="16.2900001489832 0.0 0.0 0.0 16.2900001489832 0.0 0.0 0.0 29.18601123518865" Properties=species:S:1:pos:R:3:initial_magmoms:R:1 pbc="T T T"
Si      -1.41747436       1.39090537      -1.30581133       0.00000000
Si       1.29412648      -1.33540534      -1.48548041       0.00000000
Si       1.60230070       1.11456181       1.37253055       0.00000000
Si      -1.38406357      -1.42483744       1.32265166       0.00000000
Si       2.67833666      -2.55956627      -0.03604472       0.00000000
Si       0.02241504       2.55575441       2.79575720       0.00000000
Si       3.46444320      -0.76458745       1.36859044       0.00000000
Si       2.71221986       2.69498504      -0.01129499       0.00000000
Si       0.00786807      -2.74396908       2.66847701       0.00000000
Si      -0.05997978       2.67957470      -2.77792455       0.00000000
