10
Lattice="16.2900001489832 0.0 0.0 0.0 16.2900001489832 0.0 0.0 0.0 29.18601123518865" Properties=species:S:1:pos:R:3:initial_magmoms:R:1 pbc="T T T"
Si       1.62378721       0.43362351      -1.71791781       0.00000000
Si      -1.42231249       1.99420553      -0.20208394       0.00000000
Si      -0.04311963      -1.99368425       1.57283415       0.00000000
Si      -1.33439536      -1.31813794      -1.74999323       0.00000000
Si       1.79132987       0.94750786       1.83364034       0.00000000
H       -0.30204918      -2.48761334      -2.39211467       0.00000000
Si       2.78671404       2.35089137      -0.99658554       0.00000000
Si      -0.72140266       2.94829455      -2.27440748       0.00000000
Si      -3.01809720      -2.29506554      -0.45051527       0.00000000
Si       3.30162465      -1.21761235      -1.53562198       0.00000000
