10
Lattice="16.2900001489832 0.0 0.0 0.0 16.2900001489832 0.0 0.0 0.0 29.18601123518865" Properties=species:S:1:pos:R:3:initial_magmoms:R:1 pbc="T T T"
H        0.79301350       0.58326346      -1.16087360       0.00000000
Si      -0.39159531       1.61279146       1.68076402       0.00000000
Si       1.39108456      -1.62496009       1.03989758       0.00000000
Si      -2.26391906      -0.63314344      -0.66614152       0.00000000
H       -1.89988643       1.46163655       1.76268915       0.00000000
H        2.15316335       1.53282385       1.67124938       0.00000000
Si      -2.69609276       1.48763539      -1.55123650       0.00000000
Si      -0.75535102       2.67146860      -2.14680624       0.00000000
Si       0.02182860      -3.50397903       0.66298943       0.00000000
Si       0.49896270       1.15931044      -3.52639981       0.00000000
