10
Lattice="16.2900001489832 0.0 0.0 0.0 16.2900001489832 0.0 0.0 0.0 29.18601123518865" Properties=species:S:1:pos:R:3:initial_magmoms:R:1 pbc="T T T"
Si       1.34039008      -1.41794677       1.28737161       0.00000000
Si      -1.30577383       1.39603672       1.36446646       0.00000000
Si       1.72466141       1.06750000      -1.22481869       0.00000000
Si      -1.68542858      -1.01887435      -1.36603374       0.00000000
Si       0.32540904       2.21671064      -2.72910803       0.00000000
Si      -2.61592967       2.60398910      -0.18841030       0.00000000
Si       2.73100061       0.04026888       2.55750012       0.00000000
Si       2.66340362      -2.61288670      -0.28284747       0.00000000
Si      -2.67229307      -2.67876509      -0.00900680       0.00000000
Si      -2.68648166      -0.03337821       2.67532405       0.00000000
