10
Lattice="16.2900001489832 0.0 0.0 0.0 16.2900001489832 0.0 0.0 0.0 29.18601123518865" Properties=species:S:1:pos:R:3:initial_magmoms:R:1 pbc="T T T"
Si      -1.39925237       1.14921064      -1.50428934       0.00000000
Si       1.09683992       1.77662000       1.08783706       0.00000000
Si      -1.72466141      -1.06750000       1.22481869       0.00000000
Si       1.63345696      -1.78349438      -0.43079866       0.00000000
Si       2.39760458       0.36053028       2.45070704       0.00000000
Si      -0.38427133      -2.48544677       2.51219029       0.00000000
Si      -2.22049644      -0.59375422      -2.86032979       0.00000000
Si       1.50849637      -1.82858510      -2.89908882       0.00000000
Si       3.54170016      -1.03436614       0.91639551       0.00000000
Si       0.93874221      -3.68038670       0.94197122       0.00000000
