10
Lattice="16.2900001489832 0.0 0.0 0.0 16.2900001489832 0.0 0.0 0.0 29.18601123518865" Properties=species:S:1:pos:R:3:initial_magmoms:R:1 pbc="T T T"
Si      -1.35783667      -0.67122946      -0.15775039       0.00000000
Si       0.49888614       1.41789790       1.95534601       0.00000000
Si       2.40951908      -0.07188777       1.11224970       0.00000000
Si      -1.03426840      -1.41512860      -2.33563974       0.00000000
Si      -1.01068048       2.70107750       0.54966015       0.00000000
Si       1.26622660      -1.71097130      -2.03271812       0.00000000
Si      -2.71948520       1.08949150       0.52059088       0.00000000
Si      -1.24677145      -2.22739688       1.59565761       0.00000000
Si       2.06176016      -2.27654381       0.11645218       0.00000000
Si      -0.12106728      -0.63811189       3.13054994       0.00000000
