10
Lattice="16.2900001489832 0.0 0.0 0.0 16.2900001489832 0.0 0.0 0.0 29.18601123518865" Properties=species:S:1:pos:R:3:initial_magmoms:R:1 pbc="T T T"
Si      -1.54953739       1.49421655       1.03630770       0.00000000
Si       1.44392932       1.33335280      -1.37317264       0.00000000
Si       0.84411523      -1.23668794       1.87972505       0.00000000
Si      -1.24177042      -1.42923574      -1.51921944       0.00000000
Si      -1.08028765      -1.98855290       3.14531806       0.00000000
Si       0.04652424       2.68708439      -2.84341796       0.00000000
Si       2.71248376      -0.05717790      -2.84791260       0.00000000
Si      -2.78998833       2.73960336      -0.44228481       0.00000000
Si      -2.66955635      -0.13300785      -2.93844761       0.00000000
Si      -2.08270910      -3.38752182      -0.44529097       0.00000000
