10
Lattice="16.2900001489832 0.0 0.0 0.0 16.2900001489832 0.0 0.0 0.0 29.18601123518865" Properties=species:S:1:pos:R:3:initial_magmoms:R:1 pbc="T T T"
Si      -1.52565625       1.70044796       0.59589079       0.00000000
Si       2.13237731       0.99189811      -0.21810706       0.00000000
Si      -0.05427828      -0.51212502      -2.34853995       0.00000000
Si      -0.18062352      -2.05279903       1.33438443       0.00000000
H        2.66558159       1.66428416       1.05343989       0.00000000
H       -0.33202278       0.58142269       3.50036589       0.00000000
Si       1.93168451      -1.83464823      -2.38691956       0.00000000
Si      -3.45375696       0.70938064      -0.62817052       0.00000000
Si       1.78017122       2.42906708      -2.08773376       0.00000000
Si      -1.58175901       1.57133341       3.00137265       0.00000000
