10
Lattice="16.2900001489832 0.0 0.0 0.0 16.2900001489832 0.0 0.0 0.0 29.18601123518865" Properties=species:S:1:pos:R:3:initial_magmoms:R:1 pbc="T T T"
Si      -1.28143657       0.22276575       2.00081781       0.00000000
Si       1.82508275       1.55048221       0.15162133       0.00000000
Si      -1.17066457       1.15116544      -1.76531589       0.00000000
Si       1.55485575      -1.79242130       0.58170639       0.00000000
Si      -2.24769422      -2.19120050      -0.25575702       0.00000000
H       -1.35193969      -1.16307343       2.59971476       0.00000000
Si       2.18254888       1.48310677       2.46367877       0.00000000
Si       2.55111828      -0.87047245       2.62925101       0.00000000
Si       0.04598667       1.59172849       3.43280027       0.00000000
Si      -1.58676004      -0.51422643      -3.41415041       0.00000000
