10
Lattice="16.2900001489832 0.0 0.0 0.0 16.2900001489832 0.0 0.0 0.0 29.18601123518865" Properties=species:S:1:pos:R:3:initial_magmoms:R:1 pbc="T T T"
H        0.38934729      -0.79944805       1.21174481       0.00000000
Si      -1.36539523      -1.41706711      -1.27093405       0.00000000
Si       1.89887645       1.12303261      -0.80036799       0.00000000
Si      -1.51705513       1.55543437       0.90972797       0.00000000
H        1.69720625      -1.31810536      -2.49960675       0.00000000
Si       2.55096515       1.95263345       1.34996976       0.00000000
Si      -2.93518110      -1.84911050       0.48288256       0.00000000
Si      -2.49957020       0.23358231      -2.68304083       0.00000000
Si      -3.58886622       0.48488814       0.73563341       0.00000000
Si      -1.18744327       3.60632584      -0.35828747       0.00000000
