10
Lattice="16.2900001489832 0.0 0.0 0.0 16.2900001489832 0.0 0.0 0.0 29.18601123518865" Properties=species:S:1:pos:R:3:initial_magmoms:R:1 pbc="T T T"
Si       1.22929228      -1.89995159      -0.68283592       0.00000000
Si      -2.17357472      -0.13765050       1.03543212       0.00000000
Si      -0.47747619       1.51335730      -1.90403700       0.00000000
Si       1.07171911       1.05430510       2.00922339       0.00000000
H       -1.37354023      -1.13220388      -2.12036372       0.00000000
Si      -1.13681395       3.15332049      -0.43008506       0.00000000
Si       0.63954541       3.17508393       1.12412841       0.00000000
Si      -2.86769000       2.19817262       0.84233747       0.00000000
Si       2.09763074      -2.75217924       1.38385472       0.00000000
Si       2.90147709      -1.04005135      -2.16317959       0.00000000
