10
Lattice="16.2900001489832 0.0 0.0 0.0 16.2900001489832 0.0 0.0 0.0 29.18601123518865" Properties=species:S:1:pos:R:3:initial_magmoms:R:1 pbc="T T T"
Si      -0.98872156      -2.03010869      -0.67267919       0.00000000
Si      -0.33342372      -0.10393020       2.41196115       0.00000000
Si      -1.08616834       1.84899647      -1.16058174       0.00000000
Si       2.40526739       0.20028555      -0.46773502       0.00000000
H       -0.38486754      -2.56259621      -1.95604647       0.00000000
Si       1.95251942      -0.37222650       2.98818057       0.00000000
Si       0.25418916       3.68849586      -0.39961487       0.00000000
Si       2.71305065       1.65908765       1.97510494       0.00000000
Si      -0.88080031       2.14229792       3.00697637       0.00000000
Si       2.51630003       0.48105999      -2.81948543       0.00000000
