10
Lattice="16.2900001489832 0.0 0.0 0.0 16.2900001489832 0.0 0.0 0.0 29.18601123518865" Properties=species:S:1:pos:R:3:initial_magmoms:R:1 pbc="T T T"
Si      -0.53320428      -0.67238605      -1.27154695       0.00000000
H        2.10575945       0.44986464       0.24364482       0.00000000
H        0.59311891       2.17108235       0.49502394       0.00000000
H       -0.04430880      -0.54297829       2.78752675       0.00000000
Si      -0.01073511       2.70356987       1.77839122       0.00000000
Si       0.90525160      -2.37866582      -2.07506703       0.00000000
Si      -2.66558159      -1.66428416      -1.05343989       0.00000000
Si      -0.88541038       0.76478293      -3.14117365       0.00000000
H        2.09636012       2.45993663      -1.20150052       0.00000000
Si       0.07363080       0.91274500       3.34600107       0.00000000
