10
Lattice="16.2900001489832 0.0 0.0 0.0 16.2900001489832 0.0 0.0 0.0 29.18601123518865" Properties=species:S:1:pos:R:3:initial_magmoms:R:1 pbc="T T T"
H        0.93447586       1.01825370      -0.60846996       0.00000000
Si      -0.99331534      -1.50540778      -1.42322665       0.00000000
Si      -1.52471143       1.10687456       1.38402984       0.00000000
Si       1.01765260      -1.24550083       1.69719574       0.00000000
H        2.29545650      -1.06909642      -0.84382596       0.00000000
H        2.46651779      -0.96997177      -1.60803247       0.00000000
Si       1.81032401       0.81202393       2.57578224       0.00000000
Si       0.04100193       2.40559319       2.52482346       0.00000000
Si      -0.93664243      -2.07594875       2.72217927       0.00000000
H        1.07126299      -0.59396599      -3.50343042       0.00000000
