10
Lattice="16.2900001489832 0.0 0.0 0.0 16.2900001489832 0.0 0.0 0.0 29.18601123518865" Properties=species:S:1:pos:R:3:initial_magmoms:R:1 pbc="T T T"
Si       1.48480908       1.40385592       1.16422999       0.00000000
Si      -1.24647823       1.36889758      -1.45684894       0.00000000
Si       1.35222803      -1.30562722      -1.45927138       0.00000000
Si      -1.87359437      -0.76481551       1.32081294       0.00000000
H        0.52319571       2.24020082       1.96681611       0.00000000
H        0.50118466      -2.91965673       2.09911630       0.00000000
Si      -2.65970090      -2.55979433      -0.08382222       0.00000000
Si      -2.62581770       2.69475698      -0.05907249       0.00000000
Si       2.76514608      -2.62153343      -0.10521557       0.00000000
Si      -2.61645095       0.00715131      -2.85847794       0.00000000
