10
Lattice="10.86 0.0 0.0 0.0 10.86 0.0 0.0 0.0 10.86" Properties=species:S:1:pos:R:3:initial_magmoms:R:1 pbc="T T T"
Si       1.35750000       1.35750000       1.35750000       0.00000000
Si      -1.35750000      -1.35750000       1.35750000       0.00000000
Si      -1.35750000       1.35750000      -1.35750000       0.00000000
Si       1.35750000      -1.35750000      -1.35750000       0.00000000
Si      -2.54134860      -0.01562754       2.62515522       0.00000000
Si      -2.63786142      -0.06529032      -2.54773428       0.00000000
Si      -0.17779992      -2.52208296      -2.73070356       0.00000000
Si       2.38029480      -0.25074654       2.92488036       0.00000000
Si       3.00389772      -0.33378210      -2.36025810       0.00000000
Si       0.09983598       2.67621894      -2.74557090       0.00000000
