10
Lattice="16.28999089631971 0.0 0.0 0.0 16.28999089631971 0.0 0.0 0.0 34.40785480372833" Properties=species:S:1:pos:R:3:initial_magmoms:R:1 pbc="T T T"
Si      -1.33889302      -1.37464266       1.37926372       0.00000000
Si       1.36961433       1.35102524       1.37637345       0.00000000
Si       1.33680627      -1.33768065      -1.45152369       0.00000000
Si      -1.50108115       1.35085582      -1.41880180       0.00000000
Si      -2.70945773       2.70110623       0.04249372       0.00000000
Si      -2.69302112      -2.72428545      -0.00944496       0.00000000
Si       2.72007162       2.70785029      -0.01854584       0.00000000
Si      -2.70203519      -0.01156304       2.74016395       0.00000000
Si       0.01184283       2.70296329       2.74057684       0.00000000
Si       2.72372058      -2.72301483       0.02110923       0.00000000
