10
Lattice="16.28999089631971 0.0 0.0 0.0 16.28999089631971 0.0 0.0 0.0 34.40785480372833" Properties=species:S:1:pos:R:3:initial_magmoms:R:1 pbc="T T T"
Si       1.87284501       1.40493105       0.04596892       0.00000000
Si      -1.29985566       1.06020207      -1.64418026       0.00000000
Si       0.88503570      -2.20677372      -0.42424909       0.00000000
Si      -0.89182863       0.55631979       2.17788079       0.00000000
Si       1.03987215      -0.07985358       3.33102629       0.00000000
Si       2.99149560       0.37750446       1.90643708       0.00000000
Si      -3.41491247       0.95571801      -0.68358123       0.00000000
Si       1.01533941       3.51486791       0.60516569       0.00000000
Si      -0.42658623       2.87658009       2.35470286       0.00000000
Si       0.79482168      -3.33031131       1.66028315       0.00000000
