10
Lattice="16.28999089631971 0.0 0.0 0.0 16.28999089631971 0.0 0.0 0.0 34.40785480372833" Properties=species:S:1:pos:R:3:initial_magmoms:R:1 pbc="T T T"
Si      -0.24430113      -1.36878354       1.81079492       0.00000000
Si      -1.46287458       1.50208461      -1.02449445       0.00000000
Si       1.92397932       0.72521451      -1.16109371       0.00000000
Si       0.70719777       0.45818883       2.88781643       0.00000000
Si       0.30639861       1.60746462      -2.60973402       0.00000000
Si       2.72359026       1.12106151       1.86766357       0.00000000
Si       1.38194586      -3.05805654       1.70617882       0.00000000
Si       2.88963423       2.48278889       0.01114815       0.00000000
Si       0.64620801      -3.92171976      -0.52107284       0.00000000
Si      -3.64473179       0.49941882      -2.00594465       0.00000000
