10
Lattice="16.28999089631971 0.0 0.0 0.0 16.28999089631971 0.0 0.0 0.0 34.40785480372833" Properties=species:S:1:pos:R:3:initial_magmoms:R:1 pbc="T T T"
Si      -1.35879777      -1.35443042       1.35618635       0.00000000
Si       1.35723393      -1.35601707      -1.35656484       0.00000000
Si      -1.35798327       1.35900954      -1.35728741       0.00000000
Si       1.35861858       1.35856971       1.35897339       0.00000000
Si      -2.71029762      -0.00472410       2.71154692       0.00000000
Si      -2.71389771      -2.71392417       0.00051612       0.00000000
Si       2.71533123      -2.71401262       0.00141072       0.00000000
Si      -0.00034209       2.71642266      -2.71302646       0.00000000
Si       0.00167787      -2.71538679      -2.71436837       0.00000000
Si       2.71632492      -0.00042354      -2.71443718       0.00000000
