10
Lattice="16.28999089631971 0.0 0.0 0.0 16.28999089631971 0.0 0.0 0.0 34.40785480372833" Properties=species:S:1:pos:R:3:initial_magmoms:R:1 pbc="T T T"
Si       0.75932577      -0.90081094      -2.02359589       0.00000000
Si      -2.04765300       1.18354995      -0.29102180       0.00000000
Si      -0.54328779      -2.15582579       1.01324307       0.00000000
Si       1.58537538       1.59290136       1.17547620       0.00000000
Si      -1.45332864       1.76616180       1.99397071       0.00000000
Si       1.32841692      -2.51205551       2.41023717       0.00000000
Si       1.64711448       0.80806545      -3.31065682       0.00000000
Si       0.14944446       3.53872557       1.41247764       0.00000000
Si      -2.15267463      -1.69294802       2.74540427       0.00000000
Si      -1.03985586      -1.86537067      -3.37376086       0.00000000
