10
Lattice="16.28999089631971 0.0 0.0 0.0 16.28999089631971 0.0 0.0 0.0 34.40785480372833" Properties=species:S:1:pos:R:3:initial_magmoms:R:1 pbc="T T T"
Si       0.91662201       2.04375317      -0.67969314       0.00000000
Si       0.19376955      -1.63500842      -1.73997178       0.00000000
Si       0.86279985      -0.98019064       2.02930759       0.00000000
Si      -2.20810950       0.96457325      -0.22475223       0.00000000
Si      -0.89137251       3.22714022       0.15528274       0.00000000
Si       1.21303485      -3.18918845       1.22784498       0.00000000
Si      -3.28732200      -0.81590094      -1.40480468       0.00000000
Si      -1.67793516      -1.27877870      -3.13696588       0.00000000
Si      -0.13910031      -3.74573630      -0.66651493       0.00000000
Si       0.45072801       2.46994844      -2.97473275       0.00000000
