10
Lattice="16.28999089631971 0.0 0.0 0.0 16.28999089631971 0.0 0.0 0.0 34.40785480372833" Properties=species:S:1:pos:R:3:initial_magmoms:R:1 pbc="T T T"
Si      -0.15398937       2.02805124       1.24893701       0.00000000
Si       0.93120156      -1.06085937       1.92553345       0.00000000
Si      -2.06332398      -0.99607176      -0.73106410       0.00000000
Si       1.14826581       0.60516861      -2.04152239       0.00000000
Si       2.99478618       0.12604550       1.92904305       0.00000000
Si       0.08169435       2.65314741      -2.57759707       0.00000000
Si       0.29247066       3.69890025      -0.40621936       0.00000000
Si      -3.37911615      -1.24031638       1.20792283       0.00000000
Si       1.85396490       1.99244130       2.69210647       0.00000000
Si      -2.28877758       2.06283039       2.34100853       0.00000000
