10
Lattice="16.28999089631971 0.0 0.0 0.0 16.28999089631971 0.0 0.0 0.0 34.40785480372833" Properties=species:S:1:pos:R:3:initial_magmoms:R:1 pbc="T T T"
Si       1.11449664      -0.99519261       1.85052428       0.00000000
Si      -1.72167381      -1.44209247      -0.79289505       0.00000000
Si      -1.34791605       1.89392753       0.54044448       0.00000000
Si       1.46999331      -0.23520887      -1.93575259       0.00000000
Si      -1.74998583       2.88848090      -1.52027751       0.00000000
Si       1.71800856      -2.54223762      -2.12117662       0.00000000
Si      -0.48930273      -3.32407617      -1.69513832       0.00000000
Si      -0.37743930      -2.66902269       2.70184390       0.00000000
Si       2.39275665       2.81809181      -1.16917956       0.00000000
Si       0.38480238       2.85370175      -2.61234902       0.00000000
