10
Lattice="16.28999089631971 0.0 0.0 0.0 16.28999089631971 0.0 0.0 0.0 34.40785480372833" Properties=species:S:1:pos:R:3:initial_magmoms:R:1 pbc="T T T"
Si       1.35635427       1.35826020      -1.35821642       0.00000000
Si      -1.35640314       1.36019871       1.35821642       0.00000000
Si      -1.35861858      -1.35856971      -1.35897339       0.00000000
Si       1.35553977      -1.36319607       1.35890458       0.00000000
Si       2.71345788      -2.71425772      -0.00130750       0.00000000
Si       2.71220355       2.71622718      -0.00144513       0.00000000
Si       2.71378368       0.00060273      -2.71522856       0.00000000
Si      -0.00138465      -2.71458678      -2.71553823       0.00000000
Si      -2.71741635      -2.71300013      -0.00278704       0.00000000
Si      -2.71621089       2.71469592      -0.00048171       0.00000000
