10
Lattice="16.28999089631971 0.0 0.0 0.0 16.28999089631971 0.0 0.0 0.0 34.40785480372833" Properties=species:S:1:pos:R:3:initial_magmoms:R:1 pbc="T T T"
Si      -0.37077669      -0.98688078      -2.08470427       0.00000000
Si      -0.27694629      -2.17551321       0.80830978       0.00000000
Si      -1.85194494       1.21339323       0.79028005       0.00000000
Si       1.96527447       0.85727754       0.97298586       0.00000000
Si       1.22588766       3.07029033       1.04465746       0.00000000
Si      -1.13630895      -1.58970852       2.87474347       0.00000000
Si       1.53104823      -3.35890026      -0.02666610       0.00000000
Si      -0.86553657       2.92009653       2.09275571       0.00000000
Si      -1.97354979      -2.75944455      -1.50321120       0.00000000
Si       0.16566930       0.71475633      -3.64940234       0.00000000
