10
Lattice="16.28999089631971 0.0 0.0 0.0 16.28999089631971 0.0 0.0 0.0 34.40785480372833" Properties=species:S:1:pos:R:3:initial_magmoms:R:1 pbc="T T T"
Si      -0.04176756       2.10217563       0.99387144       0.00000000
Si      -2.04551901      -0.34363755      -1.17262035       0.00000000
Si      -0.31954464      -1.73411937       1.66802492       0.00000000
Si       2.15241399       0.60496173      -0.97818145       0.00000000
Si      -1.57620411      -2.56000608      -1.65109624       0.00000000
Si       3.38374251       0.88021386       1.00612064       0.00000000
Si      -0.57886515       3.53929572      -0.88135769       0.00000000
Si       1.95126507       2.17093572       2.32163689       0.00000000
Si      -1.17413433      -3.55455945       0.40962574       0.00000000
Si       0.55858410      -2.59478523      -2.74316776       0.00000000
