10
Lattice="16.28999089631971 0.0 0.0 0.0 16.28999089631971 0.0 0.0 0.0 34.40785480372833" Properties=species:S:1:pos:R:3:initial_magmoms:R:1 pbc="T T T"
Si       0.85351455       1.53235143      -1.62697632       0.00000000
Si       0.71495181      -2.22650091      -0.67033420       0.00000000
Si      -2.28833775       0.81326196      -0.53968750       0.00000000
Si       0.40270509      -0.41484114       2.50812757       0.00000000
Si      -1.42413696       1.18734552       2.94445833       0.00000000
Si      -2.27559897       2.42033562       1.17107199       0.00000000
Si      -1.30885263      -2.59243947      -1.99393630       0.00000000
Si      -0.88495425       1.36814823      -3.21940714       0.00000000
Si       1.51881444       3.56721678      -0.75594099       0.00000000
Si       1.19322621      -3.55895775       1.38113206       0.00000000
