10
Lattice="16.28999089631971 0.0 0.0 0.0 16.28999089631971 0.0 0.0 0.0 34.40785480372833" Properties=species:S:1:pos:R:3:initial_magmoms:R:1 pbc="T T T"
Si      -1.45368702       1.25677350       1.31302168       0.00000000
Si       1.29648852      -1.44080163       1.30137805       0.00000000
Si       0.55358307       1.84803534      -1.34831624       0.00000000
Si      -1.12124070      -1.77951960      -1.07968502       0.00000000
Si      -1.97270271      -0.54652950      -2.85307136       0.00000000
Si       2.56991040       2.62027908      -0.12933232       0.00000000
Si      -0.18215478       0.98437212      -3.57556790       0.00000000
Si      -0.08649990       2.62037682       2.66761839       0.00000000
Si       2.62853811      -0.10101429       2.66896030       0.00000000
Si       0.70560135      -3.38170626      -1.51601579       0.00000000
