10
Lattice="16.28999089631971 0.0 0.0 0.0 16.28999089631971 0.0 0.0 0.0 34.40785480372833" Properties=species:S:1:pos:R:3:initial_magmoms:R:1 pbc="T T T"
Si      -1.62624699       1.68927300       0.10461611       0.00000000
Si      -0.55358307      -1.84803534       1.34831624       0.00000000
Si       2.01632733       0.77224374       1.21898393       0.00000000
Si      -0.73573785      -0.86366322      -2.22725166       0.00000000
Si      -2.00727009      -0.59126184       2.66133792       0.00000000
Si       0.71216622       2.13091119       2.65427054       0.00000000
Si      -3.38981379       0.65650329       1.17556119       0.00000000
Si      -1.38194586       3.05805654      -1.70617882       0.00000000
Si      -0.67474809       3.51624537       1.18163762       0.00000000
Si      -2.52628578      -2.39456484      -1.50475512       0.00000000
