10
Lattice="16.28999089631971 0.0 0.0 0.0 16.28999089631971 0.0 0.0 0.0 34.40785480372833" Properties=species:S:1:pos:R:3:initial_magmoms:R:1 pbc="T T T"
Si       1.35400851      -1.35480672       1.35394984       0.00000000
Si       1.35436689       1.35967743      -1.35821642       0.00000000
Si      -1.36016613      -1.35495333      -1.35856050       0.00000000
Si      -1.36200690       1.36146933       1.36028089       0.00000000
Si       2.68252317       0.00312768       2.71729304       0.00000000
Si       2.71072116      -2.71181259      -0.00127309       0.00000000
Si       2.71257822       0.00167787      -2.71512534       0.00000000
Si      -0.00239463      -2.71261080      -2.71550383       0.00000000
Si       0.00891063      -2.70941796       2.72090586       0.00000000
Si       2.71298547       2.71736748      -0.00058493       0.00000000
