10
Lattice="16.28999089631971 0.0 0.0 0.0 16.28999089631971 0.0 0.0 0.0 34.40785480372833" Properties=species:S:1:pos:R:3:initial_magmoms:R:1 pbc="T T T"
Si       1.18418526      -1.50304572       1.35759708       0.00000000
Si       1.37349135       1.33195185      -1.37923963       0.00000000
Si      -1.34263809      -1.38381921      -1.37782891       0.00000000
Si      -1.32698340       1.49064903       1.52991171       0.00000000
Si      -2.68977222       2.67942807      -0.02208986       0.00000000
Si       2.72427444       2.67950952       0.00877401       0.00000000
Si       0.01645290       2.68680744      -2.73807539       0.00000000
Si      -2.69931816      -0.02700882      -2.73917644       0.00000000
Si       2.70189198      -2.74216086      -0.02081676       0.00000000
Si      -2.71373481      -2.74458807       0.00564289       0.00000000
