10
Lattice="16.28999089631971 0.0 0.0 0.0 16.28999089631971 0.0 0.0 0.0 34.40785480372833" Properties=species:S:1:pos:R:3:initial_magmoms:R:1 pbc="T T T"
Si      -1.18418526       1.50304572      -1.35759708       0.00000000
Si       1.88087598       0.78838713       1.21129480       0.00000000
Si      -1.36547667      -1.33099074       1.44007275       0.00000000
Si       1.51770672      -1.23911514      -1.37841384       0.00000000
Si       0.22309155       0.87060276       3.04124317       0.00000000
Si      -2.52682335       0.11922651      -2.73542599       0.00000000
Si       0.18919206      -2.59704954      -2.74175703       0.00000000
Si      -2.64368781      -2.74105314       0.00447302       0.00000000
Si       2.80336239      -2.60003061       0.04552162       0.00000000
Si      -2.64018546       0.20274534       2.81009107       0.00000000
