10
Lattice="16.28999089631971 0.0 0.0 0.0 16.28999089631971 0.0 0.0 0.0 34.40785480372833" Properties=species:S:1:pos:R:3:initial_magmoms:R:1 pbc="T T T"
Si      -2.19320415       0.45423036       1.02301491       0.00000000
Si      -0.84747096      -2.15826210      -0.88053190       0.00000000
Si       0.42958359       2.13617286      -1.37108496       0.00000000
Si       0.57839274      -2.10009051       2.11061340       0.00000000
Si       2.15832726       2.14073406       0.51494824       0.00000000
Si      -1.15898463      -0.06542064      -2.97225538       0.00000000
Si      -2.43369342       1.46831544      -1.60223706       0.00000000
Si      -1.44407592       2.68666083       1.18555771       0.00000000
Si       0.68668866       2.67840180       2.25753502       0.00000000
Si       2.89543347      -2.05954470      -1.64514368       0.00000000
