10
Lattice="16.28999089631971 0.0 0.0 0.0 16.28999089631971 0.0 0.0 0.0 34.40785480372833" Properties=species:S:1:pos:R:3:initial_magmoms:R:1 pbc="T T T"
Si       0.68663979       1.44651942       1.67662689       0.00000000
Si      -2.10592952       0.87847083      -0.50359364       0.00000000
Si       1.34223084       0.22903740      -1.93977831       0.00000000
Si      -0.07535265      -2.30470010       0.56311927       0.00000000
Si       0.26301834      -1.55143679      -3.11983075       0.00000000
Si      -2.19040946      -2.40918416       1.52371829       0.00000000
Si       2.23984242       0.14996574       2.81246522       0.00000000
Si       1.79960517       3.07740906       0.50669035       0.00000000
Si      -0.13166067      -3.30945101      -1.56201426       0.00000000
Si      -1.68794441       3.07608957      -1.26245931       0.00000000
