10
Lattice="16.28999089631971 0.0 0.0 0.0 16.28999089631971 0.0 0.0 0.0 34.40785480372833" Properties=species:S:1:pos:R:3:initial_magmoms:R:1 pbc="T T T"
Si       0.16604397       1.36172738      -1.85651542       0.00000000
Si      -2.01639249      -0.66287268       1.02015286       0.00000000
Si       1.64079396      -1.70219097      -0.22637357       0.00000000
Si       0.77283018       1.96675916       1.14002302       0.00000000
Si      -0.79961094      -0.39584700      -3.02875728       0.00000000
Si      -0.62947818      -2.04820686       2.49278579       0.00000000
Si       2.11541940       0.65438758       2.49247612       0.00000000
Si      -2.72359026      -1.12106151      -1.86766357       0.00000000
Si       0.67468293      -3.40687431       1.05749917       0.00000000
Si       3.45533706      -0.67162041       0.97853654       0.00000000
