10
Lattice="16.28999089631971 0.0 0.0 0.0 16.28999089631971 0.0 0.0 0.0 34.40785480372833" Properties=species:S:1:pos:R:3:initial_magmoms:R:1 pbc="T T T"
Si      -1.35479043       1.35296595       1.35594550       0.00000000
Si      -1.35620766      -1.35834165      -1.35666807       0.00000000
Si       1.35848826       1.35606105      -1.35684010       0.00000000
Si       1.35668007      -1.35681039       1.36134754       0.00000000
Si      -2.69650814      -0.00226431       2.71488448       0.00000000
Si       0.00954594       2.70643689       2.71708659       0.00000000
Si      -2.71131900       2.71336014       0.00065375       0.00000000
Si       0.00109143       2.71342530      -2.71378343       0.00000000
Si      -2.71340901      -0.00140094      -2.71412751       0.00000000
Si       2.71577106       2.71381626       0.00110105       0.00000000
