10
Lattice="16.28999089631971 0.0 0.0 0.0 16.28999089631971 0.0 0.0 0.0 34.40785480372833" Properties=species:S:1:pos:R:3:initial_magmoms:R:1 pbc="T T T"
Si      -1.35777150       1.35193805       1.36420339       0.00000000
Si       1.36186029      -1.36447500       1.36365286       0.00000000
Si      -1.36961433      -1.35102524      -1.37637345       0.00000000
Si       1.35045729       1.35682505      -1.39491930       0.00000000
Si      -2.70721392       2.70741266       0.00430098       0.00000000
Si       2.71409319       2.71441736      -0.00003441       0.00000000
Si       0.00219915       2.70992132       2.72073382       0.00000000
Si      -2.71253749      -0.00554023       2.72152520       0.00000000
Si      -2.70850735      -2.72566791       0.00289026       0.00000000
Si       2.71559187      -2.71991754       0.00495473       0.00000000
