10
Lattice="16.28999089631971 0.0 0.0 0.0 16.28999089631971 0.0 0.0 0.0 34.40785480372833" Properties=species:S:1:pos:R:3:initial_magmoms:R:1 pbc="T T T"
Si      -1.36278882       1.18877904      -1.55200157       0.00000000
Si      -1.48012569      -1.26926793       1.43074822       0.00000000
Si       0.93823884       1.86095331       1.39998758       0.00000000
Si       1.32698340      -1.49064903      -1.52991171       0.00000000
Si      -2.61099378       2.64214468      -0.22464901       0.00000000
Si      -0.12901680      -2.79094941       2.63777644       0.00000000
Si      -0.81181215       3.60670441       1.12551597       0.00000000
Si      -0.01484019       2.55185944      -2.90856641       0.00000000
Si       2.90046708       2.61536555       0.07710805       0.00000000
Si       2.51116866      -2.99369475      -0.17231463       0.00000000
