10
Lattice="16.28999089631971 0.0 0.0 0.0 16.28999089631971 0.0 0.0 0.0 34.40785480372833" Properties=species:S:1:pos:R:3:initial_magmoms:R:1 pbc="T T T"
Si      -1.87284501      -1.40493105      -0.04596892       0.00000000
Si      -0.85750560       2.10993686       0.55919677       0.00000000
Si       1.31579217       0.24424462      -1.93898693       0.00000000
Si       1.11865059      -1.02742659       1.86046816       0.00000000
Si      -2.29943124       1.47164904       2.30873394       0.00000000
Si      -2.76467364      -0.84861126       2.13191188       0.00000000
Si      -3.17270067      -0.34472898      -1.69014918       0.00000000
Si       1.09033857       3.30314678       1.13308570       0.00000000
Si      -0.83297286      -1.48478463       3.28505737       0.00000000
Si       1.66602717      -1.96475319      -2.74044954       0.00000000
