10
Lattice="16.28999089631971 0.0 0.0 0.0 16.28999089631971 0.0 0.0 0.0 34.40785480372833" Properties=species:S:1:pos:R:3:initial_magmoms:R:1 pbc="T T T"
Si      -1.33239168      -1.36632569      -1.36238665       0.00000000
Si      -1.35488817       1.35560819       1.35677129       0.00000000
Si       1.36000323      -1.35620382       1.35800997       0.00000000
Si       1.34395758       1.36740215      -1.37757085       0.00000000
Si       2.65875606      -0.07661187      -2.68998007       0.00000000
Si      -2.67498090      -0.05395411      -2.71483975       0.00000000
Si      -2.71397916       0.00001466       2.71464363       0.00000000
Si       0.00148239      -2.71523742       2.71471245       0.00000000
Si       0.00118917       2.71520417       2.71495330       0.00000000
Si      -2.71580364      -2.71479759      -0.00185803       0.00000000
