10
Lattice="16.28999089631971 0.0 0.0 0.0 16.28999089631971 0.0 0.0 0.0 34.40785480372833" Properties=species:S:1:pos:R:3:initial_magmoms:R:1 pbc="T T T"
Si      -1.35791811       1.35106165       1.36021208       0.00000000
Si      -1.35674523      -1.35832461      -1.35625517       0.00000000
Si       1.35865116       1.35586720      -1.35687451       0.00000000
Si       1.35870003      -1.35667034       1.36028089       0.00000000
Si      -2.68565085       0.00361149       2.73848829       0.00000000
Si      -2.71345788       2.71425772       0.00130750       0.00000000
Si       0.00032580       2.71486045      -2.71392106       0.00000000
Si      -2.71484253      -0.00032906      -2.71423074       0.00000000
Si       2.71542897      -0.00054409      -2.71368021       0.00000000
Si       0.00061902      -2.71558114      -2.71416192       0.00000000
