10
Lattice="16.28999089631971 0.0 0.0 0.0 16.28999089631971 0.0 0.0 0.0 34.40785480372833" Properties=species:S:1:pos:R:3:initial_magmoms:R:1 pbc="T T T"
Si      -1.35775521       1.35786924       1.35770030       0.00000000
Si       1.35772263       1.35715248      -1.35873254       0.00000000
Si      -1.35679410      -1.35951453      -1.35862931       0.00000000
Si       1.35602847      -1.36177884       1.35942070       0.00000000
Si       2.71585251       2.71182888      -0.00371605       0.00000000
Si       2.71679733      -2.71309298      -0.00082579       0.00000000
Si       2.71453302      -0.00141723      -2.71560705       0.00000000
Si      -0.00040725       2.71422351      -2.71619198       0.00000000
Si      -2.71511946      -0.00052128      -2.71567587       0.00000000
Si      -2.71544526      -2.71538173      -0.00175480       0.00000000
