10
Lattice="16.28999089631971 0.0 0.0 0.0 16.28999089631971 0.0 0.0 0.0 34.40785480372833" Properties=species:S:1:pos:R:3:initial_magmoms:R:1 pbc="T T T"
Si      -1.04153505       0.73886553       1.96623796       0.00000000
Si      -1.47564726      -1.28766586      -1.30774007       0.00000000
Si       0.21303834       1.86988023      -1.43707927       0.00000000
Si       2.10656350      -1.07624446       0.19357870       0.00000000
Si       1.99528651       0.85859703      -2.69179680       0.00000000
Si       1.64132110      -3.39650477       0.01675663       0.00000000
Si      -2.26945896       0.09211995      -3.01994470       0.00000000
Si       0.75147497       1.35381303       3.51211493       0.00000000
Si      -2.50717893       2.56536549       1.41612487       0.00000000
Si       3.54848914      -0.43795665      -1.55595847       0.00000000
