10
Lattice="16.28999089631971 0.0 0.0 0.0 16.28999089631971 0.0 0.0 0.0 34.40785480372833" Properties=species:S:1:pos:R:3:initial_magmoms:R:1 pbc="T T T"
Si       2.28521007      -0.45763497       0.23466170       0.00000000
Si      -0.48477411       1.62145773       1.75975631       0.00000000
Si      -1.32408378      -2.03607081       0.70474208       0.00000000
Si       0.57049209       0.74754810      -2.61031896       0.00000000
Si      -2.41851114      -0.85879251      -1.60295963       0.00000000
Si      -0.77468724      -1.06860771      -3.33997233       0.00000000
Si       2.52193635      -1.94764869      -1.82093351       0.00000000
Si      -1.31905017       3.44233764       0.33028118       0.00000000
Si       2.60685612      -1.57056777       2.31732872       0.00000000
Si      -1.77018543       0.15617223       3.39522935       0.00000000
