10
Lattice="16.28999089631971 0.0 0.0 0.0 16.28999089631971 0.0 0.0 0.0 34.40785480372833" Properties=species:S:1:pos:R:3:initial_magmoms:R:1 pbc="T T T"
Si      -1.65631833      -0.98533975      -1.41464533       0.00000000
Si       1.04254371      -1.74519299       1.30429928       0.00000000
Si      -1.90925316       0.88723485       1.30426487       0.00000000
Si       1.32408378       2.03607081      -0.70474208       0.00000000
Si      -1.09442736       1.17727830      -2.30770170       0.00000000
Si      -0.44610165       2.19224304       2.69048728       0.00000000
Si       2.27708136      -0.58706228       2.92030779       0.00000000
Si      -3.66344181      -1.16943629      -0.10109033       0.00000000
Si       0.83930967       3.65752854       1.05501423       0.00000000
Si       2.78471034      -2.79991610      -0.19399159       0.00000000
