10
Lattice="16.28999089631971 0.0 0.0 0.0 16.28999089631971 0.0 0.0 0.0 34.40785480372833" Properties=species:S:1:pos:R:3:initial_magmoms:R:1 pbc="T T T"
Si      -1.35845568      -1.35376416       1.39063896       0.00000000
Si       1.35829278       1.35754344       1.39201527       0.00000000
Si       1.29441969      -1.37060802      -1.52231445       0.00000000
Si      -1.29277440       1.52619381      -1.50580555       0.00000000
Si       2.70280422      -2.70589932       0.01991528       0.00000000
Si      -2.68770339       2.72802114       0.03083290       0.00000000
Si      -2.72209158      -2.71135647      -0.00424593       0.00000000
Si       2.71788876       2.72433960       0.00348896       0.00000000
Si      -2.71270854      -0.00084708       2.75566814       0.00000000
Si       0.00288333       2.71544526       2.75511761       0.00000000
