10
Lattice="16.28999089631971 0.0 0.0 0.0 16.28999089631971 0.0 0.0 0.0 34.40785480372833" Properties=species:S:1:pos:R:3:initial_magmoms:R:1 pbc="T T T"
Si      -1.34807895      -1.35337320      -1.37817299       0.00000000
Si       1.37057544       1.35918873      -1.37858588       0.00000000
Si       1.39461948      -1.32695082       1.44729841       0.00000000
Si      -1.44956565       1.35788553       1.40473587       0.00000000
Si       2.30068557       0.36844722       2.91792535       0.00000000
Si      -2.70824508      -2.70611109       0.00313112       0.00000000
Si       2.72978046       2.70425403      -0.01149223       0.00000000
Si       2.74178619      -2.69555517      -0.01042559       0.00000000
Si      -2.70702333       0.00386073      -2.73776572       0.00000000
Si       0.00967626      -2.71124244      -2.73587329       0.00000000
