10
Lattice="16.28999089631971 0.0 0.0 0.0 16.28999089631971 0.0 0.0 0.0 34.40785480372833" Properties=species:S:1:pos:R:3:initial_magmoms:R:1 pbc="T T T"
Si       1.36016613       1.35273789      -1.38130410       0.00000000
Si      -1.35544203      -1.36945143      -1.38054713       0.00000000
Si       1.54403136      -1.21195971       1.36840115       0.00000000
Si      -1.36718712       1.38259746       1.39747580       0.00000000
Si      -2.68317477      -2.71690159      -0.00227092       0.00000000
Si      -2.70058878       2.71236645      -0.01871788       0.00000000
Si       2.70824508       2.70611109      -0.00313112       0.00000000
Si       2.72389977      -2.72607611      -0.00251177       0.00000000
Si      -2.71098180      -0.00625536      -2.73945171       0.00000000
Si       0.00122175       2.70997182      -2.74089684       0.00000000
