10
Lattice="16.28999089631971 0.0 0.0 0.0 16.28999089631971 0.0 0.0 0.0 34.40785480372833" Properties=species:S:1:pos:R:3:initial_magmoms:R:1 pbc="T T T"
Si       1.43247744      -1.29072186      -1.31551625       0.00000000
Si       0.29603817       2.34053091       0.16574273       0.00000000
Si      -1.99303263      -0.06876009      -1.32776545       0.00000000
Si       0.71584776      -0.53985060       2.35164056       0.00000000
Si       2.79208971       0.46999908      -1.97721407       0.00000000
Si      -1.22329755       2.49038262       2.13315056       0.00000000
Si       0.20114892      -1.56597399      -3.29981834       0.00000000
Si       2.96453565       0.53704872       2.09943084       0.00000000
Si      -1.95126507      -2.17093572      -2.32163689       0.00000000
Si       1.33995024       2.03867721      -2.94042810       0.00000000
