10
Lattice="16.28999089631971 0.0 0.0 0.0 16.28999089631971 0.0 0.0 0.0 34.40785480372833" Properties=species:S:1:pos:R:3:initial_magmoms:R:1 pbc="T T T"
Si       1.35915615       1.35325917       1.37472188       0.00000000
Si      -1.35449721      -1.36681245       1.38019273       0.00000000
Si       1.41576390      -1.19027772      -1.50579179       0.00000000
Si      -1.41312492       1.35448092      -1.41809988       0.00000000
Si      -2.68654680      -2.70659979       0.01261049       0.00000000
Si       2.71904535      -2.71028133      -0.01473345       0.00000000
Si      -2.71728603       2.71314837       0.01718673       0.00000000
Si       2.72189610       2.71542897      -0.00973743       0.00000000
Si       0.00394218       2.71080261       2.73603500       0.00000000
Si      -2.71070487      -0.00452862       2.73692961       0.00000000
