10
Lattice="16.28999089631971 0.0 0.0 0.0 16.28999089631971 0.0 0.0 0.0 34.40785480372833" Properties=species:S:1:pos:R:3:initial_magmoms:R:1 pbc="T T T"
Si       0.52989415       1.08380628       2.07080349       0.00000000
Si      -0.60063673       1.63421280      -1.65739288       0.00000000
Si       0.36655432      -2.40180479      -0.58947570       0.00000000
Si      -2.13839874      -1.41809174       1.89146965       0.00000000
Si      -0.30126074      -0.75716409       3.35555707       0.00000000
Si       1.65183532       1.92070503      -2.52856585       0.00000000
Si      -3.20827707      -1.77206204      -0.43553487       0.00000000
Si       2.13582751      -2.29642478      -2.17471527       0.00000000
Si      -1.24755010       2.85216723       2.23157845       0.00000000
Si       2.30853409      -0.25241355      -3.27896717       0.00000000
