10
Lattice="16.28999089631971 0.0 0.0 0.0 16.28999089631971 0.0 0.0 0.0 34.40785480372833" Properties=species:S:1:pos:R:3:initial_magmoms:R:1 pbc="T T T"
Si       1.32851466       1.35793440       1.36334319       0.00000000
Si      -1.35400851       1.35480672      -1.35394984       0.00000000
Si      -1.34509788      -1.35461124       1.36695602       0.00000000
Si       1.35671265      -1.35700587      -1.35522293       0.00000000
Si      -0.18919206       2.59704954       2.74175703       0.00000000
Si       2.61417033      -0.00298107       2.78727865       0.00000000
Si      -2.71189404      -2.71303434       0.00443862       0.00000000
Si       0.00035838       2.71448415      -2.71216626       0.00000000
Si      -2.71417464      -0.00014661      -2.71251034       0.00000000
Si       2.71542897      -0.00076563      -2.71151251       0.00000000
