10
Lattice="16.28999089631971 0.0 0.0 0.0 16.28999089631971 0.0 0.0 0.0 34.40785480372833" Properties=species:S:1:pos:R:3:initial_magmoms:R:1 pbc="T T T"
Si      -0.94398921       2.05486947       0.55437967       0.00000000
Si      -1.89973980      -1.22561073      -0.75518402       0.00000000
Si       1.64683755      -0.94889250       1.45380149       0.00000000
Si       1.10418507       0.86688864      -1.93795469       0.00000000
Si      -2.45931759       2.18978325      -1.30956369       0.00000000
Si      -2.48635899       0.16019586      -2.55471583       0.00000000
Si       3.32588043       0.54846801      -1.35945510       0.00000000
Si       1.13246451       3.41521479       0.54846151       0.00000000
Si       1.04607864      -1.04405868      -3.38807454       0.00000000
Si      -1.09973790      -3.37413141      -1.32057421       0.00000000
