10
Lattice="16.28999089631971 0.0 0.0 0.0 16.28999089631971 0.0 0.0 0.0 34.40785480372833" Properties=species:S:1:pos:R:3:initial_magmoms:R:1 pbc="T T T"
Si       1.62987966       1.55155734      -0.63520376       0.00000000
Si       1.45213947      -1.56867813       0.96321403       0.00000000
Si      -1.12019814       1.71564651       1.17743745       0.00000000
Si      -1.00442511      -1.52160003      -1.57828918       0.00000000
Si      -1.04391207       0.30185370       3.10617083       0.00000000
Si       2.60812674      -2.11986657      -1.03891135       0.00000000
Si       0.41482485       3.58492401      -0.15270214       0.00000000
Si      -3.28813650       1.54005660       0.31765349       0.00000000
Si       0.09252720      -3.32939907       1.62491185       0.00000000
Si       2.05628670       1.12124070      -2.92694021       0.00000000
