10
Lattice="16.28999089631971 0.0 0.0 0.0 16.28999089631971 0.0 0.0 0.0 34.40785480372833" Properties=species:S:1:pos:R:3:initial_magmoms:R:1 pbc="T T T"
Si       1.46572533       1.16769978       1.45624931       0.00000000
Si      -0.48933531       1.60779042      -1.75428546       0.00000000
Si       0.44056305      -0.55723203      -2.37476265       0.00000000
Si      -1.36143675      -1.53681489       1.39984104       0.00000000
Si       1.21819878      -2.78870139      -1.95206192       0.00000000
Si      -2.96963442      -0.83536749      -1.91834220       0.00000000
Si      -2.80188000       1.57827294      -1.87526354       0.00000000
Si      -0.05530455       2.36889180       2.89589540       0.00000000
Si       2.86233219       2.48982876      -0.15129142       0.00000000
Si      -2.67615378      -2.74771575      -0.22399526       0.00000000
