10
Lattice="16.28999089631971 0.0 0.0 0.0 16.28999089631971 0.0 0.0 0.0 34.40785480372833" Properties=species:S:1:pos:R:3:initial_magmoms:R:1 pbc="T T T"
Si      -2.25794061       0.69432867      -0.36148912       0.00000000
Si       0.34160130      -2.48055975       0.08687988       0.00000000
Si       0.69054939       2.29863370      -0.76849987       0.00000000
Si       0.36988074       0.06776640       2.57329608       0.00000000
Si       2.57580738       0.56410641       1.50589501       0.00000000
Si      -0.77680494      -1.59874947      -2.50695770       0.00000000
Si      -1.70657298      -1.29257892       2.57921424       0.00000000
Si      -3.22190136      -1.15766514       0.71527089       0.00000000
Si      -0.36440730       3.37602824       1.01382801       0.00000000
Si       2.90497941       2.33161769      -0.09245396       0.00000000
