10
Lattice="16.28999089631971 0.0 0.0 0.0 16.28999089631971 0.0 0.0 0.0 34.40785480372833" Properties=species:S:1:pos:R:3:initial_magmoms:R:1 pbc="T T T"
Si       1.34693865       1.35496799      -1.34255051       0.00000000
Si       1.35436119      -1.35770128       1.35511971       0.00000000
Si      -1.35839052       1.35591281       1.35560142       0.00000000
Si      -1.34501643      -1.37902066      -1.36819126       0.00000000
Si      -0.10893123       2.58321770      -2.66758742       0.00000000
Si       2.55531523       0.00471758      -2.80384604       0.00000000
Si       2.71347321      -0.00065323       2.71285442       0.00000000
Si      -0.00174303       2.71407527       2.71316409       0.00000000
Si      -0.00125433      -2.71568214       2.71288883       0.00000000
Si      -2.71629234      -0.00043331       2.71333613       0.00000000
