10
Lattice="16.28999089631971 0.0 0.0 0.0 16.28999089631971 0.0 0.0 0.0 34.40785480372833" Properties=species:S:1:pos:R:3:initial_magmoms:R:1 pbc="T T T"
Si      -1.35622395      -1.35746328       1.35752826       0.00000000
Si      -1.35747828       1.35708508      -1.35690892       0.00000000
Si       1.35755973      -1.35816375      -1.35735622       0.00000000
Si       1.35933534       1.35991791       1.35770030       0.00000000
Si      -2.71425609       2.71349636      -0.00010322       0.00000000
Si      -2.71376739       0.00108162      -2.71409310       0.00000000
Si       0.00042354       2.71343120      -2.71464363       0.00000000
Si       2.71317525      -0.00018289      -2.71512534       0.00000000
Si      -0.00143352       2.71123205       2.71794679       0.00000000
Si       2.71477994       2.71442489      -0.00020645       0.00000000
