10
Lattice="16.28999089631971 0.0 0.0 0.0 16.28999089631971 0.0 0.0 0.0 34.40785480372833" Properties=species:S:1:pos:R:3:initial_magmoms:R:1 pbc="T T T"
Si      -1.35628911      -1.35600346      -1.35718418       0.00000000
Si      -1.35677781       1.35641129       1.35680570       0.00000000
Si       1.35747828      -1.35708508       1.35690892       0.00000000
Si       1.35790182       1.35634613      -1.35773471       0.00000000
Si       0.00125433      -2.71454835       2.71443718       0.00000000
Si       2.71454931       2.71450858      -0.00017204       0.00000000
Si      -2.71542897       0.00054409       2.71368021       0.00000000
Si       2.71629234       0.00043331      -2.71333613       0.00000000
Si      -2.71480995      -2.71503705      -0.00048171       0.00000000
Si       0.00128691      -2.71487415      -2.71502212       0.00000000
