10
Lattice="16.28999089631971 0.0 0.0 0.0 16.28999089631971 0.0 0.0 0.0 34.40785480372833" Properties=species:S:1:pos:R:3:initial_magmoms:R:1 pbc="T T T"
Si      -1.16660835      -0.08848728      -2.06409396       0.00000000
Si      -0.12101841      -1.30549689       2.01623260       0.00000000
Si       2.14186526       1.14878709      -0.17816397       0.00000000
Si      -1.46109897       1.94137704       0.77541585       0.00000000
Si       0.67447346       1.09434591      -3.23096819       0.00000000
Si       0.46918769       2.51344926       2.37190680       0.00000000
Si       2.73618962       1.73139894       2.10682853       0.00000000
Si       2.03684363      -1.72771088       2.85826210       0.00000000
Si      -3.08931705       1.55960460      -1.85602954       0.00000000
Si      -0.95729814      -3.47143877       1.76175197       0.00000000
