10
Lattice="16.28999089631971 0.0 0.0 0.0 16.28999089631971 0.0 0.0 0.0 34.40785480372833" Properties=species:S:1:pos:R:3:initial_magmoms:R:1 pbc="T T T"
Si       1.35749953       1.35637056      -1.35663366       0.00000000
Si       1.35770891      -1.35716877       1.35687451       0.00000000
Si      -1.35681039       1.35856971       1.35687451       0.00000000
Si      -1.35664749      -1.35816246      -1.35756267       0.00000000
Si       0.00131949       2.71324611       2.71189100       0.00000000
Si       0.00226431      -2.71167575       2.71478126       0.00000000
Si       0.00174303      -2.71407527      -2.71316409       0.00000000
Si      -2.71454931      -2.71450858       0.00017204       0.00000000
Si       2.71521624      -2.71472850      -0.00030967       0.00000000
Si      -2.71453302       0.00141723       2.71560705       0.00000000
