10
Lattice="16.28999089631971 0.0 0.0 0.0 16.28999089631971 0.0 0.0 0.0 34.40785480372833" Properties=species:S:1:pos:R:3:initial_magmoms:R:1 pbc="T T T"
Si       1.35603566       1.35643572       1.35728741       0.00000000
Si      -1.35936792      -1.35848826       1.35649603       0.00000000
Si      -1.35879777       1.35369900      -1.36330878       0.00000000
Si       1.35731931      -1.35863487      -1.36007444       0.00000000
Si       2.70251819      -0.00418653      -2.71253787       0.00000000
Si       2.71247138      -2.71510317       0.00072257       0.00000000
Si       2.71323701      -0.00050499       2.71474685       0.00000000
Si       2.71416554       2.71384884       0.00024086       0.00000000
Si      -0.00193975       2.71401174       2.71471245       0.00000000
Si      -0.00311611      -2.71565703       2.71454041       0.00000000
