10
Lattice="16.28999089631971 0.0 0.0 0.0 16.28999089631971 0.0 0.0 0.0 34.40785480372833" Properties=species:S:1:pos:R:3:initial_magmoms:R:1 pbc="T T T"
Si      -1.35711990      -1.35638685       1.35697774       0.00000000
Si       1.35835794       1.35826020       1.35656484       0.00000000
Si      -1.35607734       1.35524655      -1.36289589       0.00000000
Si       1.35935163      -1.35479043      -1.36055615       0.00000000
Si      -2.71347417      -2.71420722      -0.00072257       0.00000000
Si       0.00100998      -2.71345788       2.71443718       0.00000000
Si       2.71460975       0.00109143       2.71460922       0.00000000
Si      -2.71469592       0.00073305       2.71498771       0.00000000
Si      -2.71466334       2.71541268      -0.00041289       0.00000000
Si       0.00078192       2.71586880       2.71488448       0.00000000
