10
Lattice="16.28999089631971 0.0 0.0 0.0 16.28999089631971 0.0 0.0 0.0 34.40785480372833" Properties=species:S:1:pos:R:3:initial_magmoms:R:1 pbc="T T T"
Si      -1.30210857       1.16133039      -1.67459682       0.00000000
Si      -1.73120346      -1.17447642       1.25482076       0.00000000
Si       0.88888733       1.85367168       1.35339932       0.00000000
Si       1.39364275      -1.52708976      -1.64576302       0.00000000
Si      -2.63274093       2.57805540      -0.40652903       0.00000000
Si       2.72584547       2.60841996      -0.15652142       0.00000000
Si      -0.88488909       3.58520094       0.86828270       0.00000000
Si      -2.63726955      -2.86987446      -0.21580619       0.00000000
Si       0.04823469       2.53272033      -3.04237863       0.00000000
Si      -3.17039238       0.50305149       2.37576048       0.00000000
