10
Lattice="16.28999089631971 0.0 0.0 0.0 16.28999089631971 0.0 0.0 0.0 34.40785480372833" Properties=species:S:1:pos:R:3:initial_magmoms:R:1 pbc="T T T"
Si      -2.09865699      -0.89930574      -0.41788363       0.00000000
Si      -0.07014474       2.34378891       0.26149984       0.00000000
Si       1.09037115      -0.59466645      -2.01702398       0.00000000
Si       0.48169530      -0.89731836       2.14952871       0.00000000
Si      -3.13085655      -0.29905182       1.61015087       0.00000000
Si       2.36019294       0.29949165       2.67283806       0.00000000
Si      -0.67064301       0.06498081      -3.57656087       0.00000000
Si       1.40815647      -2.96971587      -1.62573764       0.00000000
Si      -2.81672019      -0.08145000      -2.51287586       0.00000000
Si      -0.49655178       2.77410555       2.55323629       0.00000000
