10
Lattice="16.28999089631971 0.0 0.0 0.0 16.28999089631971 0.0 0.0 0.0 34.40785480372833" Properties=species:S:1:pos:R:3:initial_magmoms:R:1 pbc="T T T"
Si      -1.52598204       1.46574162       1.01802577       0.00000000
Si      -0.21708054       0.35968320      -2.32610992       0.00000000
Si      -1.12242987      -2.11729275       0.19271850       0.00000000
Si       1.95803668       0.54304344       1.77572156       0.00000000
Si       0.47024343       2.37992013       2.05831343       0.00000000
Si       1.44730134       1.95400179      -2.73697434       0.00000000
Si      -3.13543404      -0.06584418       1.91558957       0.00000000
Si       0.50424066      -1.71874161      -3.21717063       0.00000000
Si      -2.53024425      -2.36436318      -1.73835461       0.00000000
Si       3.45863483      -1.38730527      -1.09245000       0.00000000
