10
Lattice="16.28999089631971 0.0 0.0 0.0 16.28999089631971 0.0 0.0 0.0 34.40785480372833" Properties=species:S:1:pos:R:3:initial_magmoms:R:1 pbc="T T T"
Si       1.63867626      -1.05213852      -1.35219504       0.00000000
Si      -1.08263992       1.69315002      -1.31692697       0.00000000
Si       1.93797243       0.91567719       1.18672758       0.00000000
Si      -2.06846022      -2.02443975       0.00254618       0.00000000
Si       0.29367612      -2.39834412      -2.71801560       0.00000000
Si      -2.43446627       0.32918832      -2.71639843       0.00000000
Si      -0.60106842      -1.96999857       3.05535040       0.00000000
Si       3.09369906      -2.34548307       0.03571537       0.00000000
Si       3.00618918       0.32514840      -2.71237271       0.00000000
Si      -2.47628267       3.22023978       0.32883605       0.00000000
