10
Lattice="16.28999089631971 0.0 0.0 0.0 16.28999089631971 0.0 0.0 0.0 34.40785480372833" Properties=species:S:1:pos:R:3:initial_magmoms:R:1 pbc="T T T"
Si       1.06095141      -1.47546675      -1.44299742       0.00000000
Si       1.29663513      -0.21367593       2.00474037       0.00000000
Si       0.32917203       1.76751128      -1.59834897       0.00000000
Si      -2.20592664      -0.49634001       1.06740107       0.00000000
Si      -2.57580738      -0.56410641      -1.50589501       0.00000000
Si      -2.20543794       1.85505374       1.44575005       0.00000000
Si       1.38111507       3.07397906      -0.02257157       0.00000000
Si      -0.09106110       2.87555057       1.82950107       0.00000000
Si      -1.88525799       1.73452729      -2.27439488       0.00000000
Si      -0.01251072      -3.36308679      -0.84051555       0.00000000
