10
Lattice="16.28999089631971 0.0 0.0 0.0 16.28999089631971 0.0 0.0 0.0 34.40785480372833" Properties=species:S:1:pos:R:3:initial_magmoms:R:1 pbc="T T T"
Si       1.48779325      -1.83687669      -0.28259187       0.00000000
Si      -1.99622547      -0.91417851      -1.04028766       0.00000000
Si      -1.18390833       0.60129648       2.08074737       0.00000000
Si       1.01041983       1.90464309      -1.21153565       0.00000000
Si      -0.47024343      -2.37992013      -2.05831343       0.00000000
Si      -2.29705290       2.25753336       0.71265589       0.00000000
Si      -0.38255436       3.53705163      -0.07614463       0.00000000
Si      -3.26726901       1.05896403      -1.07008488       0.00000000
Si       1.68572734      -2.58510897       2.08845473       0.00000000
Si       0.11945457       1.96102278       3.62143704       0.00000000
