10
Lattice="16.28999089631971 0.0 0.0 0.0 16.28999089631971 0.0 0.0 0.0 34.40785480372833" Properties=species:S:1:pos:R:3:initial_magmoms:R:1 pbc="T T T"
Si       1.11626085       1.43550738      -1.49677693       0.00000000
Si       1.83189684      -1.36759437       0.58768649       0.00000000
Si       0.10546472       1.15833303       2.12220885       0.00000000
Si      -1.65565274      -1.36891386      -1.18146317       0.00000000
Si       0.71893146      -2.99848401       1.75762302       0.00000000
Si       2.27736318       2.01070728       1.90406293       0.00000000
Si       2.69125950      -1.95339906      -1.47874720       0.00000000
Si      -0.54193735       2.10191499      -3.00910622       0.00000000
Si      -3.66800531      -0.52447284      -0.31452238       0.00000000
Si       2.96820579       0.22211415      -2.28705698       0.00000000
