10
Lattice="16.28999089631971 0.0 0.0 0.0 16.28999089631971 0.0 0.0 0.0 34.40785480372833" Properties=species:S:1:pos:R:3:initial_magmoms:R:1 pbc="T T T"
Si      -1.11296538      -1.63088964       1.16993653       0.00000000
Si       0.85936266      -0.58580469      -2.06643369       0.00000000
Si      -1.83189684       1.36759437      -0.58768649       0.00000000
Si       1.53326367       1.32774903       1.20837013       0.00000000
Si      -1.72643212       2.52592740       1.53452237       0.00000000
Si       1.13630895       1.58970852      -2.87474347       0.00000000
Si      -0.71563599       2.80310175      -2.08446342       0.00000000
Si      -1.79960517      -3.07740906      -0.50669035       0.00000000
Si       0.44546634       3.37830165       1.31637644       0.00000000
Si       0.44023725      -2.92744332       2.30577486       0.00000000
