10
Lattice="16.28999089631971 0.0 0.0 0.0 16.28999089631971 0.0 0.0 0.0 34.40785480372833" Properties=species:S:1:pos:R:3:initial_magmoms:R:1 pbc="T T T"
Si      -1.91306502       1.33235910       0.24388301       0.00000000
Si       1.73846880       0.16420320       1.59243082       0.00000000
Si       0.75650760       1.21626027      -1.90248017       0.00000000
Si      -0.31250736      -2.30255892      -0.55131737       0.00000000
Si      -1.40338350      -0.55488627       2.67971964       0.00000000
Si      -2.31730789      -1.84324608      -1.75084467       0.00000000
Si      -3.56047829      -0.26391429      -0.37996615       0.00000000
Si       0.88495425      -1.36814823       3.21940714       0.00000000
Si       3.60292446      -0.18345798       0.24742702       0.00000000
Si       1.59917301      -2.62927116      -1.91906477       0.00000000
