10
Lattice="16.28999089631971 0.0 0.0 0.0 16.28999089631971 0.0 0.0 0.0 34.40785480372833" Properties=species:S:1:pos:R:3:initial_magmoms:R:1 pbc="T T T"
Si      -1.53149297       0.82083681      -1.63289448       0.00000000
Si      -1.66816607      -0.38053440       1.68013649       0.00000000
Si       0.75386601      -2.20509585      -0.72676312       0.00000000
Si       2.02685295       1.48709781      -0.14368728       0.00000000
Si       0.10695265      -0.98714142       3.16220822       0.00000000
Si      -0.13024184       1.77806979      -3.20337307       0.00000000
Si      -1.03914401      -2.82004335      -2.27264008       0.00000000
Si      -2.50478789      -0.99354339      -2.82275317       0.00000000
Si       3.00633807      -1.91860362      -1.59793608       0.00000000
Si      -2.94368936      -2.51253702       1.00780663       0.00000000
