10
Lattice="16.28999089631971 0.0 0.0 0.0 16.28999089631971 0.0 0.0 0.0 34.40785480372833" Properties=species:S:1:pos:R:3:initial_magmoms:R:1 pbc="T T T"
Si      -0.65347172      -1.68476067      -1.48074286       0.00000000
Si       1.65819820      -0.66640761       1.51232929       0.00000000
Si      -1.48226035       0.93988413       1.59831456       0.00000000
Si       0.64622593       1.57996710      -1.94741685       0.00000000
Si      -1.84779166       2.81150739       0.22258454       0.00000000
Si       0.26584465       3.61018980      -0.58713596       0.00000000
Si       0.54193735      -2.10191499       3.00910622       0.00000000
Si       2.93945557       0.99559593      -2.32070788       0.00000000
Si      -0.73040858      -3.85719507      -0.51608370       0.00000000
Si       2.64460657       1.04029569       2.81480495       0.00000000
