10
Lattice="16.28999089631971 0.0 0.0 0.0 16.28999089631971 0.0 0.0 0.0 34.40785480372833" Properties=species:S:1:pos:R:3:initial_magmoms:R:1 pbc="T T T"
Si      -1.18208874       0.98117928      -1.68925458       0.00000000
Si      -2.18131897      -0.57788775       0.94518430       0.00000000
Si       1.37178090      -1.63422909      -1.34496939       0.00000000
Si       0.73748088       1.98672840       1.38663732       0.00000000
Si      -1.44330866      -2.13183972       2.56139096       0.00000000
Si       0.24091281       2.27718352      -3.00036662       0.00000000
Si      -2.48501506      -0.43129404      -3.02531232       0.00000000
Si       2.85190659      -0.36496116      -2.77571761       0.00000000
Si      -0.87190596       2.44960616       3.11879852       0.00000000
Si       2.60918559       1.63049868       2.78363142       0.00000000
