10
Lattice="16.28999089631971 0.0 0.0 0.0 16.28999089631971 0.0 0.0 0.0 34.3005442915855" Properties=species:S:1:pos:R:3:initial_magmoms:R:1 pbc="T T T"
Si      -1.22929620       1.41808360       1.42897519       0.00000000
Si       1.11453248       1.14823975      -1.78611407       0.00000000
Si       1.48583045      -1.32660940       1.41010988       0.00000000
Si      -1.89326031      -0.82867067      -1.32291926       0.00000000
Si       2.69542811       2.56825534      -0.09359252       0.00000000
Si      -2.65919982      -2.64333010       0.08562107       0.00000000
Si      -2.42121921       2.92671679      -0.11870396       0.00000000
Si      -2.58680706       0.03526459       2.80568319       0.00000000
Si       2.75829122      -2.68213288      -0.18566552       0.00000000
Si       0.13072562      -2.67845134       2.80331645       0.00000000
