10
Lattice="16.28999089631971 0.0 0.0 0.0 16.28999089631971 0.0 0.0 0.0 34.3005442915855" Properties=species:S:1:pos:R:3:initial_magmoms:R:1 pbc="T T T"
Si       2.07012343      -0.85330278       0.61480330       0.00000000
Si       0.31041898       2.01652837      -1.16326931       0.00000000
Si      -1.38927703      -1.61665218      -1.03632292       0.00000000
Si      -0.63578730       1.14134256       1.98764905       0.00000000
Si       0.20954967      -1.88560008      -2.77158843       0.00000000
Si      -1.55149285       2.04288233      -2.61020428       0.00000000
Si       2.09988526      -0.37030428      -2.99166084       0.00000000
Si       1.71488740      -2.76767100       1.86289790       0.00000000
Si      -3.52911514      -0.62931528      -1.17321647       0.00000000
Si      -2.79955120       2.21183244       1.30890950       0.00000000
