10
Lattice="16.28999089631971 0.0 0.0 0.0 16.28999089631971 0.0 0.0 0.0 34.3005442915855" Properties=species:S:1:pos:R:3:initial_magmoms:R:1 pbc="T T T"
Si      -1.35457866       1.35542574       1.36015454       0.00000000
Si       1.35378045       1.34757396      -1.37226607       0.00000000
Si       1.35874890      -1.36106208       1.35813081       0.00000000
Si      -1.35593073      -1.36089918      -1.38634988       0.00000000
Si       2.71502172       2.71060713      -0.00205803       0.00000000
Si      -2.71617831       2.70998811      -0.00301845       0.00000000
Si       0.00063531       2.71212210       2.71735924       0.00000000
Si      -2.71485882      -0.00309510       2.71684473       0.00000000
Si      -2.71235016      -2.71988754      -0.00222954       0.00000000
Si       2.71555929      -0.00327429       2.71722204       0.00000000
