10
Lattice="16.28999089631971 0.0 0.0 0.0 16.28999089631971 0.0 0.0 0.0 34.3005442915855" Properties=species:S:1:pos:R:3:initial_magmoms:R:1 pbc="T T T"
Si      -1.36326123       1.33219620       1.36092288       0.00000000
Si       1.33993395      -1.41612228       1.33825020       0.00000000
Si      -1.79538606      -0.98347617      -1.21037667       0.00000000
Si       1.59356925       1.19389410      -1.42799904       0.00000000
Si       0.14152752       2.41191369      -2.78314570       0.00000000
Si      -2.35747251       2.84478786      -0.19096153       0.00000000
Si      -3.32229663       0.98793963      -1.39609952       0.00000000
Si      -0.01521486       2.66149278       2.71552416       0.00000000
Si       2.70117522      -0.05308911       2.70845824       0.00000000
Si      -2.73002481      -0.05370813       2.70749783       0.00000000
