10
Lattice="16.28999089631971 0.0 0.0 0.0 16.28999089631971 0.0 0.0 0.0 34.3005442915855" Properties=species:S:1:pos:R:3:initial_magmoms:R:1 pbc="T T T"
Si       1.35521397       1.35669636       1.35720470       0.00000000
Si       1.35457866      -1.35542574      -1.36015454       0.00000000
Si      -1.36028016      -1.35852084       1.35669019       0.00000000
Si      -1.36159965       1.35456237      -1.36317299       0.00000000
Si       2.71300176      -0.00135207       2.71440939       0.00000000
Si      -0.00232947       2.71402803       2.71468379       0.00000000
Si       2.71332756      -2.71648782      -0.00202373       0.00000000
Si       2.71360449       2.71656927       0.00037731       0.00000000
Si      -0.00242721      -2.71652040       2.71440939       0.00000000
Si      -2.71772586       2.71376739       0.00017150       0.00000000
