10
Lattice="16.28999089631971 0.0 0.0 0.0 16.28999089631971 0.0 0.0 0.0 34.3005442915855" Properties=species:S:1:pos:R:3:initial_magmoms:R:1 pbc="T T T"
Si       0.51157116      -1.62165321      -1.55299231       0.00000000
Si      -1.67084249      -0.75119706       1.42707494       0.00000000
Si       2.03729256       0.23991912       1.17935627       0.00000000
Si      -0.02823057       2.26970199      -0.85288351       0.00000000
Si       1.37919285       2.51990010       1.33326290       0.00000000
Si      -2.25308130       1.18908855       2.57655543       0.00000000
Si      -0.08408898       1.90061946       3.15451992       0.00000000
Si       3.57596451      -0.84506004      -0.39630871       0.00000000
Si      -1.03013073      -1.52624268      -3.31888822       0.00000000
Si      -0.72273843      -2.45113024       2.85998098       0.00000000
