10
Lattice="16.28999089631971 0.0 0.0 0.0 16.28999089631971 0.0 0.0 0.0 34.3005442915855" Properties=species:S:1:pos:R:3:initial_magmoms:R:1 pbc="T T T"
Si      -0.33300018       2.19688569       0.76013479       0.00000000
Si       1.65675816      -1.52637300       0.68484505       0.00000000
Si      -2.03027157      -1.21210632      -0.28308255       0.00000000
Si       0.71374635      -0.55410435      -2.23934659       0.00000000
Si       1.50653178      -2.66352903      -1.39287728       0.00000000
Si      -2.44403757       2.66118327      -0.40687328       0.00000000
Si      -0.11023443       2.01228741       3.14114270       0.00000000
Si      -1.37217186      -3.49208730      -0.43698918       0.00000000
Si       1.02136671      -2.71104696       2.53251350       0.00000000
Si       3.78242397      -0.58062447       0.91105727       0.00000000
