10
Lattice="16.28999089631971 0.0 0.0 0.0 16.28999089631971 0.0 0.0 0.0 34.3005442915855" Properties=species:S:1:pos:R:3:initial_magmoms:R:1 pbc="T T T"
Si      -0.86499900      -1.27873242      -1.84056824       0.00000000
Si       0.79278543      -2.10942468       0.84646931       0.00000000
Si      -0.71374635       0.55410435       2.23934659       0.00000000
Si       2.13745977       0.78473817      -0.80657775       0.00000000
Si      -1.25108829       1.84551039      -1.50054675       0.00000000
Si       0.94301181      -0.97226865       2.92419164       0.00000000
Si      -2.80231983       0.04654053      -1.95890518       0.00000000
Si      -2.74401792      -0.65800197       1.95626404       0.00000000
Si       1.80739179       3.10938633      -1.18127711       0.00000000
Si       2.65378761      -2.97057924      -0.22902486       0.00000000
