10
Lattice="16.28999089631971 0.0 0.0 0.0 16.28999089631971 0.0 0.0 0.0 34.3005442915855" Properties=species:S:1:pos:R:3:initial_magmoms:R:1 pbc="T T T"
Si      -1.35702216      -1.35796698       1.35662159       0.00000000
Si      -1.35702216       1.35668007      -1.35806221       0.00000000
Si       1.35754344      -1.35733167      -1.35747910       0.00000000
Si       1.35803214       1.35848826       1.35754770       0.00000000
Si      -0.00249237       2.71466334       2.71296877       0.00000000
Si       0.00074934       2.71366965      -2.71454659       0.00000000
Si      -2.71437012       2.71412577      -0.00099472       0.00000000
Si       0.00232947      -2.71402803      -2.71468379       0.00000000
Si       0.00115659      -2.71422351       2.71519830       0.00000000
Si       2.71529865       2.71438641      -0.00034301       0.00000000
