10
Lattice="16.28999089631971 0.0 0.0 0.0 16.28999089631971 0.0 0.0 0.0 34.3005442915855" Properties=species:S:1:pos:R:3:initial_magmoms:R:1 pbc="T T T"
Si       1.35479043      -1.35793440      -1.35528386       0.00000000
Si      -1.35777150      -1.35698958       1.35648438       0.00000000
Si       1.35682668       1.35845568       1.35679309       0.00000000
Si      -1.35799956       1.35637056      -1.36204107       0.00000000
Si       0.00674406      -2.68723098      -2.70988515       0.00000000
Si       2.71518462      -2.71112841       0.00024010       0.00000000
Si      -0.00074934      -2.71366965       2.71454659       0.00000000
Si      -2.71511946       0.00045612       2.71355188       0.00000000
Si       2.71454931       0.00071676       2.71420359       0.00000000
Si       2.71456560       2.71494027      -0.00041161       0.00000000
