10
Lattice="16.28999089631971 0.0 0.0 0.0 16.28999089631971 0.0 0.0 0.0 34.3005442915855" Properties=species:S:1:pos:R:3:initial_magmoms:R:1 pbc="T T T"
Si      -1.24116768      -0.17809857       2.13335784       0.00000000
Si       0.78933195       1.83925503      -1.52767850       0.00000000
Si       1.90247652      -1.64892267      -0.09456665       0.00000000
Si      -1.89172512      -0.82243323      -1.62759604       0.00000000
Si       1.81731240       1.08577737       2.45262749       0.00000000
Si      -0.46376001      -2.15462943      -3.01536253       0.00000000
Si       2.14738038      -1.23887079       2.82732684       0.00000000
Si      -2.79239922      -1.97706843       1.67499942       0.00000000
Si       2.25267894       0.58798755      -3.01735197       0.00000000
Si      -0.85507839      -3.30234138       1.79333636       0.00000000
