10
Lattice="16.28999089631971 0.0 0.0 0.0 16.28999089631971 0.0 0.0 0.0 34.3005442915855" Properties=species:S:1:pos:R:3:initial_magmoms:R:1 pbc="T T T"
Si       1.18824147       1.51353648      -1.42439950       0.00000000
Si      -1.26205146       1.62417816       1.27104168       0.00000000
Si      -1.61114616      -1.34648253      -1.40707771       0.00000000
Si       2.48564223       0.95672799       1.18508447       0.00000000
Si      -1.77577290      -0.21670587       2.80719241       0.00000000
Si       2.38122333       0.01226637      -2.78184430       0.00000000
Si       0.20667123      -1.62031743       3.36519398       0.00000000
Si       0.24145038       3.57404229       1.52987373       0.00000000
Si      -0.32058720      -2.69428455      -2.80427687       0.00000000
Si      -0.33824556       2.72953611      -2.79402100       0.00000000
