10
Lattice="16.28999089631971 0.0 0.0 0.0 16.28999089631971 0.0 0.0 0.0 34.3005442915855" Properties=species:S:1:pos:R:3:initial_magmoms:R:1 pbc="T T T"
Si      -1.55123154      -1.79896986      -0.45835843       0.00000000
Si       1.24116768       0.17809857      -2.13335784       0.00000000
Si      -1.38743559       1.83242952       0.99145779       0.00000000
Si       1.25108829      -1.84551039       1.50054675       0.00000000
Si       0.38608929      -3.12424281      -0.34002149       0.00000000
Si       3.05848008       1.26387594       0.31926964       0.00000000
Si       3.38854806      -1.06077222       0.69396900       0.00000000
Si       0.10671579       3.63174147       1.22061985       0.00000000
Si      -2.58843213      -1.35791811      -2.51539752       0.00000000
Si      -0.65055744      -0.64433466      -3.76095388       0.00000000
