10
Lattice="16.28999089631971 0.0 0.0 0.0 16.28999089631971 0.0 0.0 0.0 34.3005442915855" Properties=species:S:1:pos:R:3:initial_magmoms:R:1 pbc="T T T"
Si      -0.79676019       2.11623390       0.64437039       0.00000000
Si      -1.78196310      -1.51143507       0.35312430       0.00000000
Si       1.84091661      -0.48529539       1.40683761       0.00000000
Si       0.26629263       0.53778177      -2.29391878       0.00000000
Si      -2.51375877       2.35229229      -0.94779317       0.00000000
Si      -1.55919735      -1.69603335       2.73413221       0.00000000
Si      -1.87958907       1.21482675      -2.92628397       0.00000000
Si       3.81399399      -0.05721048       0.19839446       0.00000000
Si       1.00502784       3.65238090       0.79460685       0.00000000
Si       1.61598429       2.45799810      -2.60632831       0.00000000
