10
Lattice="16.28999089631971 0.0 0.0 0.0 16.28999089631971 0.0 0.0 0.0 34.3005442915855" Properties=species:S:1:pos:R:3:initial_magmoms:R:1 pbc="T T T"
Si       1.13037939       1.36562328       1.55236945       0.00000000
Si       0.96847308      -1.84446783      -1.18172301       0.00000000
Si       0.45359505       1.17040392      -2.08993333       0.00000000
Si      -1.53052695      -1.41159366       1.41046116       0.00000000
Si      -1.35294966      -0.01422117      -3.14649359       0.00000000
Si       2.17978119      -0.23332167       2.94850529       0.00000000
Si       3.07082790       2.05726410       0.09017618       0.00000000
Si      -0.54796302       2.49274467       2.91758676       0.00000000
Si       2.42051481      -3.06248742       0.17342365       0.00000000
Si       0.81769284       3.58842636      -1.53422990       0.00000000
