10
Lattice="16.28999089631971 0.0 0.0 0.0 16.28999089631971 0.0 0.0 0.0 34.3005442915855" Properties=species:S:1:pos:R:3:initial_magmoms:R:1 pbc="T T T"
Si      -1.35695700      -1.35871632       1.35614138       0.00000000
Si       1.35721764       1.35555606       1.35905693       0.00000000
Si      -1.35705474       1.35757602      -1.35768490       0.00000000
Si       1.35762489      -1.35721764      -1.35765060       0.00000000
Si      -0.00244350      -2.71467963       2.71307167       0.00000000
Si      -2.71362078      -0.00281817       2.71557561       0.00000000
Si      -2.71432125      -2.71521720      -0.00089181       0.00000000
Si      -2.71358820       0.00149868      -2.71622732       0.00000000
Si       0.00079821      -2.71567332      -2.71444369       0.00000000
Si      -2.71477737       2.71539020      -0.00037731       0.00000000
