10
Lattice="16.28999089631971 0.0 0.0 0.0 16.28999089631971 0.0 0.0 0.0 34.3005442915855" Properties=species:S:1:pos:R:3:initial_magmoms:R:1 pbc="T T T"
Si      -1.35721764      -1.35555606      -1.35905693       0.00000000
Si       1.36309833      -1.35931905       1.35298573       0.00000000
Si       1.35827649       1.35925833      -1.35905693       0.00000000
Si      -1.36028016       1.36225125       1.35662159       0.00000000
Si       2.70707220      -0.01221750       2.70652026       0.00000000
Si       2.71596654      -2.71016730      -0.00312135       0.00000000
Si      -2.71417464      -2.71427238      -0.00291555       0.00000000
Si       0.00040725      -2.71277370      -2.71670753       0.00000000
Si      -2.71427238       0.00201996      -2.71674183       0.00000000
Si      -2.71495656       2.71625391      -0.00305275       0.00000000
