10
Lattice="16.28999089631971 0.0 0.0 0.0 16.28999089631971 0.0 0.0 0.0 34.3005442915855" Properties=species:S:1:pos:R:3:initial_magmoms:R:1 pbc="T T T"
Si      -1.35467640       1.35400266      -1.35967434       0.00000000
Si      -1.35446463      -1.36348929       1.36090916       0.00000000
Si       1.36028016      -1.36225125      -1.35662159       0.00000000
Si       1.34982198       1.36927291       1.37991167       0.00000000
Si       0.17202240      -2.57948892       2.73053065       0.00000000
Si       2.68177383      -0.05714532       2.70579995       0.00000000
Si      -2.70933651       2.71009304       0.00075461       0.00000000
Si      -2.71171485      -0.00241711      -2.71605582       0.00000000
Si       0.00301365       2.71229219      -2.71585001       0.00000000
Si      -2.71055826      -2.72062548      -0.00010290       0.00000000
