10
Lattice="16.28999089631971 0.0 0.0 0.0 16.28999089631971 0.0 0.0 0.0 34.3005442915855" Properties=species:S:1:pos:R:3:initial_magmoms:R:1 pbc="T T T"
Si      -0.03253113       2.27843343      -0.47989918       0.00000000
Si       2.26313712      -0.59220666      -1.10588447       0.00000000
Si      -0.78481962      -0.77773347       2.40927158       0.00000000
Si      -2.48564223      -0.95672799      -1.18508447       0.00000000
Si      -1.29740076       0.55680849      -2.60948397       0.00000000
Si      -2.24419185       2.61731430       0.34478926       0.00000000
Si       1.13896422      -2.39212134      -2.47238461       0.00000000
Si       1.36106208      -1.45477845       3.04163677       0.00000000
Si      -3.74769369       0.66745017       0.08595721       0.00000000
Si       3.77502831      -0.12870729       0.74154388       0.00000000
