10
Lattice="16.28999089631971 0.0 0.0 0.0 16.28999089631971 0.0 0.0 0.0 34.3005442915855" Properties=species:S:1:pos:R:3:initial_magmoms:R:1 pbc="T T T"
Si       1.35679410      -1.35558911       1.36193817       0.00000000
Si      -1.36003581       1.36136670       1.36087486       0.00000000
Si       1.35641943       1.35898836      -1.38412035       0.00000000
Si      -1.36161594      -1.36214929      -1.39306936       0.00000000
Si       2.71164969      -2.71483831       0.00188653       0.00000000
Si      -2.71672077      -2.71399123       0.00013720       0.00000000
Si       2.71235016       2.71988754       0.00222954       0.00000000
Si       2.71267596       0.00140583       2.71962308       0.00000000
Si      -0.00166158      -2.71373059       2.71928007       0.00000000
Si      -0.00250866       2.71679244       2.71907427       0.00000000
