10
Lattice="16.28999089631971 0.0 0.0 0.0 16.28999089631971 0.0 0.0 0.0 34.3005442915855" Properties=species:S:1:pos:R:3:initial_magmoms:R:1 pbc="T T T"
Si      -0.76245345       1.58229657      -1.61703146       0.00000000
Si      -1.10830644       1.48294386       1.67126065       0.00000000
Si      -0.36409779      -2.41802244      -0.55570343       0.00000000
Si       2.37736260      -0.57202335      -0.61847346       0.00000000
Si       2.25313506      -1.53116226       1.62440608       0.00000000
Si      -2.87539677       0.88814709      -1.02877680       0.00000000
Si       1.73211570      -2.44457514      -1.94738019       0.00000000
Si      -0.80449794       3.69027863       0.02479931       0.00000000
Si       0.31268655      -2.22280308       3.08659936       0.00000000
Si      -0.81769284      -3.58842636       1.53422990       0.00000000
