10
Lattice="16.28999089631971 0.0 0.0 0.0 16.28999089631971 0.0 0.0 0.0 34.3005442915855" Properties=species:S:1:pos:R:3:initial_magmoms:R:1 pbc="T T T"
Si      -2.11294332      -0.69414948       0.58825466       0.00000000
Si      -0.13613553      -0.39587958      -2.31038305       0.00000000
Si       0.76245345      -1.58229657       1.61703146       0.00000000
Si      -0.04204449       2.10798206       1.64183077       0.00000000
Si      -0.34585299      -0.09935271       3.28829212       0.00000000
Si       1.89583020      -1.32713001      -2.92395153       0.00000000
Si      -3.51417654       1.19244659       0.79673349       0.00000000
Si      -3.00286602      -2.01539880      -1.22044835       0.00000000
Si       2.18517318       2.98358585       1.02750768       0.00000000
Si       3.13981605      -2.15431992       0.99855800       0.00000000
