10
Lattice="16.28999089631971 0.0 0.0 0.0 16.28999089631971 0.0 0.0 0.0 34.3005442915855" Properties=species:S:1:pos:R:3:initial_magmoms:R:1 pbc="T T T"
Si       1.30961826      -1.35184194       1.40101680       0.00000000
Si      -0.85419873      -1.70654040      -1.45135429       0.00000000
Si       1.49159385       1.27037565      -1.38330198       0.00000000
Si      -1.42104186       1.36386396       1.39450656       0.00000000
Si      -2.63870307      -2.65497352      -0.01458460       0.00000000
Si       2.81776275      -2.59436658      -0.03271245       0.00000000
Si       2.66009184       0.00807984       2.76605232       0.00000000
Si      -0.05774805      -2.70734913       2.76680693       0.00000000
Si       2.71976211       2.75550237       0.00571447       0.00000000
Si      -0.05980059       2.72689713       2.76471460       0.00000000
