10
Lattice="16.28999089631971 0.0 0.0 0.0 16.28999089631971 0.0 0.0 0.0 34.3005442915855" Properties=species:S:1:pos:R:3:initial_magmoms:R:1 pbc="T T T"
Si       1.35640314       1.35671754      -1.35713609       0.00000000
Si       1.35241209      -1.35794116       1.36258988       0.00000000
Si      -1.35840681      -1.35886079      -1.35696459       0.00000000
Si      -1.35796698       1.35694560       1.36008594       0.00000000
Si       2.71370223      -0.00133741      -2.71471810       0.00000000
Si      -0.00138465       2.71424469      -2.71447799       0.00000000
Si       2.71477737       2.71414695      -0.00024010       0.00000000
Si       2.71511946      -2.71541498      -0.00003430       0.00000000
Si      -0.00143352      -2.71593626      -2.71461519       0.00000000
Si      -2.71661814      -0.00096274      -2.71430649       0.00000000
