10
Lattice="16.28999089631971 0.0 0.0 0.0 16.28999089631971 0.0 0.0 0.0 34.3005442915855" Properties=species:S:1:pos:R:3:initial_magmoms:R:1 pbc="T T T"
Si      -0.12153969       2.25247694       0.68031738       0.00000000
Si      -2.02735566      -0.80612435      -0.89267216       0.00000000
Si       0.12393432      -1.45728452       1.87771575       0.00000000
Si       1.92593412      -0.78225950      -1.16817429       0.00000000
Si       2.01797262      -2.35149149       0.58002253       0.00000000
Si      -1.17087633       1.62009914       2.73313750       0.00000000
Si      -1.53647280      -3.15714602      -0.82053808       0.00000000
Si       0.39869775       0.09208248       3.63970139       0.00000000
Si       0.18779112      -3.69922835       0.70244124       0.00000000
Si      -1.23388605       3.44184242      -1.08959170       0.00000000
