10
Lattice="16.28999089631971 0.0 0.0 0.0 16.28999089631971 0.0 0.0 0.0 34.3005442915855" Properties=species:S:1:pos:R:3:initial_magmoms:R:1 pbc="T T T"
Si      -0.45180315       1.44878373       1.75979041       0.00000000
Si      -1.86004107      -1.39923607      -0.34904253       0.00000000
Si       1.56957408      -1.52801666       0.90656389       0.00000000
Si       1.04933664       0.63237780      -2.05282012       0.00000000
Si       1.17087633      -1.62009914      -2.73313750       0.00000000
Si       1.29481065      -3.07738367      -0.85542175       0.00000000
Si       1.68461406       2.45434914       2.15441839       0.00000000
Si      -0.97655292      -3.58286237      -0.15274041       0.00000000
Si      -2.40917697       2.63537991       1.17815575       0.00000000
Si       2.96093556       1.87439256      -1.38594857       0.00000000
