10
Lattice="16.28999089631971 0.0 0.0 0.0 16.28999089631971 0.0 0.0 0.0 34.3005442915855" Properties=species:S:1:pos:R:3:initial_magmoms:R:1 pbc="T T T"
Si       0.67134348       0.94707845      -2.00963571       0.00000000
Si       1.44870228      -1.37497702       1.24802600       0.00000000
Si      -1.69668495      -1.35562450      -0.96981413       0.00000000
Si       0.07741008       2.06371885       1.33727607       0.00000000
Si       2.56251474       2.06366998      -1.39977169       0.00000000
Si      -0.45269910      -2.18281441       2.95269540       0.00000000
Si      -3.72865068      -0.42437407      -0.35624565       0.00000000
Si       2.78415648       0.06497071       2.61703009       0.00000000
Si      -0.96047469       2.47061047      -2.81940341       0.00000000
Si       1.48023972       3.57692953       0.09847692       0.00000000
