10
Lattice="16.28999089631971 0.0 0.0 0.0 16.28999089631971 0.0 0.0 0.0 34.3005442915855" Properties=species:S:1:pos:R:3:initial_magmoms:R:1 pbc="T T T"
Si       1.35671265       1.35646830       1.35734190       0.00000000
Si       1.35713619      -1.35734796      -1.35734190       0.00000000
Si      -1.35778779       1.35804843      -1.35720470       0.00000000
Si      -1.35938421      -1.35762489       1.35672449       0.00000000
Si      -2.71300176       0.00135207      -2.71440939       0.00000000
Si       2.71441899       2.71471221       0.00010290       0.00000000
Si      -2.71417464       0.00115659       2.71547271       0.00000000
Si       2.71492398      -2.71487511       0.00000000       0.00000000
Si      -2.71542897      -2.71516833       0.00000000       0.00000000
Si      -2.71533123       2.71538010       0.00027440       0.00000000
