10
Lattice="16.28999089631971 0.0 0.0 0.0 16.28999089631971 0.0 0.0 0.0 34.3005442915855" Properties=species:S:1:pos:R:3:initial_magmoms:R:1 pbc="T T T"
Si      -0.13181868      -1.72333539      -1.56297378       0.00000000
Si       2.23186032      -0.16796619       0.69921699       0.00000000
Si      -1.51783704      -0.85421502       1.59161475       0.00000000
Si       0.24825960       2.11494699      -1.10701639       0.00000000
Si      -1.58583150       1.08191664       2.86056409       0.00000000
Si       1.82084733       1.16533773      -2.74709783       0.00000000
Si       1.38051234      -3.26244717      -0.54695678       0.00000000
Si       0.44779581      -0.64093005      -3.55343547       0.00000000
Si       3.37377303       0.02715543      -1.40632310       0.00000000
Si      -1.70092035       2.22350355      -2.43434529       0.00000000
