10
Lattice="16.28999089631971 0.0 0.0 0.0 16.28999089631971 0.0 0.0 0.0 34.3005442915855" Properties=species:S:1:pos:R:3:initial_magmoms:R:1 pbc="T T T"
Si       1.35992178      -1.35568638      -1.36094346       0.00000000
Si      -1.35435060       1.36208835      -1.36180097       0.00000000
Si      -1.35886293      -1.34517933       1.37589850       0.00000000
Si       1.36399428       1.36236528       1.37308586       0.00000000
Si      -2.70721881       2.71293660      -0.00569389       0.00000000
Si      -2.71314837      -2.71195920       0.00000000       0.00000000
Si       2.71515204      -2.71179630       0.00209233       0.00000000
Si      -2.71218726       0.00174303      -2.71797665       0.00000000
Si       0.00226431      -2.71331127      -2.71780515       0.00000000
Si       2.71415835       2.71823085       0.00068601       0.00000000
