10
Lattice="16.28999089631971 0.0 0.0 0.0 16.28999089631971 0.0 0.0 0.0 34.3005442915855" Properties=species:S:1:pos:R:3:initial_magmoms:R:1 pbc="T T T"
Si      -1.35029439       1.34332227      -1.43153402       0.00000000
Si       1.36143675      -1.38678399      -1.43297464       0.00000000
Si      -1.70049681      -0.89358795       1.49125130       0.00000000
Si       1.56351420       1.32820515       1.36128646       0.00000000
Si      -2.58046632      -2.67801084       0.03090481       0.00000000
Si       2.63831211      -2.72067435       0.07179108       0.00000000
Si      -2.81364138       2.59458975       0.05813946       0.00000000
Si       0.00856854       2.68850160      -2.80743252       0.00000000
Si      -2.70457983      -0.02345760      -2.80743252       0.00000000
Si       2.72372058      -0.02329470      -2.80534018       0.00000000
