10
Lattice="16.28999089631971 0.0 0.0 0.0 16.28999089631971 0.0 0.0 0.0 34.3005442915855" Properties=species:S:1:pos:R:3:initial_magmoms:R:1 pbc="T T T"
Si      -1.21784040       0.17405865       2.00970431       0.00000000
Si      -1.26977292      -0.13266576      -2.00020306       0.00000000
Si       0.72534483      -2.25269523       0.18453703       0.00000000
Si       1.94251734       1.37471310      -0.55155306       0.00000000
Si       0.36349506       3.16237770      -0.29018277       0.00000000
Si       2.04314067      -1.70895132      -1.80589037       0.00000000
Si       0.64277082      -0.12779505      -3.43880299       0.00000000
Si       2.06169498      -1.96706637       2.05727920       0.00000000
Si       0.23420133      -1.04396094       3.36485097       0.00000000
Si      -1.73271843       3.18893040       1.10149399       0.00000000
