10
Lattice="16.28999089631971 0.0 0.0 0.0 16.28999089631971 0.0 0.0 0.0 34.3005442915855" Properties=species:S:1:pos:R:3:initial_magmoms:R:1 pbc="T T T"
Si      -1.65436353      -0.21146049      -1.68360886       0.00000000
Si       0.45276426      -2.39415759       0.15129979       0.00000000
Si      -1.13279031       0.45180315       2.17283779       0.00000000
Si       1.96579575       1.30704444      -1.09854415       0.00000000
Si       0.58842738       2.47410891      -2.71458089       0.00000000
Si      -0.51807087       0.52926210      -3.68820239       0.00000000
Si      -3.23338581       1.57620411      -1.42223856       0.00000000
Si       0.46858185       1.49573151       3.59029970       0.00000000
Si       3.18480903       2.18054682       0.83099975       0.00000000
Si       2.01639249      -2.80865664       1.94161770       0.00000000
