10
Lattice="16.28999089631971 0.0 0.0 0.0 16.28999089631971 0.0 0.0 0.0 34.3005442915855" Properties=species:S:1:pos:R:3:initial_magmoms:R:1 pbc="T T T"
Si       1.35267273      -1.35672894       1.36149227       0.00000000
Si       1.35589815       1.35740433      -1.35761630       0.00000000
Si      -1.35897696      -1.35819504      -1.35761630       0.00000000
Si      -1.36270737       1.35747382       1.36262418       0.00000000
Si       2.71265967       2.71413459      -0.00017150       0.00000000
Si       2.71358820      -0.00037467      -2.71444369       0.00000000
Si      -2.71583622      -2.71287144      -0.00099472       0.00000000
Si      -0.00141723       2.71407757      -2.71468379       0.00000000
Si      -0.00148239      -2.71538010      -2.71427219       0.00000000
Si       2.71441899      -2.71572219       0.00116622       0.00000000
