10
Lattice="16.28999089631971 0.0 0.0 0.0 16.28999089631971 0.0 0.0 0.0 34.3005442915855" Properties=species:S:1:pos:R:3:initial_magmoms:R:1 pbc="T T T"
Si      -1.35286821       1.35084825       1.35610708       0.00000000
Si       1.35685926       1.35467640      -1.35662159       0.00000000
Si      -1.35783666      -1.36034532      -1.35617568       0.00000000
Si       1.35435060      -1.36208835       1.36180097       0.00000000
Si      -0.00889434       2.69794980       2.70964161       0.00000000
Si      -0.00071676       2.71235016      -2.71358618       0.00000000
Si      -2.71596654       2.71016730       0.00312135       0.00000000
Si       2.71435383      -0.00250866      -2.71327747       0.00000000
Si       2.71583622       2.71287144       0.00099472       0.00000000
Si      -2.71555929      -0.00260640      -2.71358618       0.00000000
