10
Lattice="16.28999089631971 0.0 0.0 0.0 16.28999089631971 0.0 0.0 0.0 34.3005442915855" Properties=species:S:1:pos:R:3:initial_magmoms:R:1 pbc="T T T"
Si       1.64603934       1.40097258       0.77282600       0.00000000
Si      -1.88713134       0.77983488       1.09573150       0.00000000
Si      -0.41692626       0.50178087      -2.24493758       0.00000000
Si       0.64208664      -2.24901369       0.29855210       0.00000000
Si      -3.21592293      -0.67553001      -0.26188480       0.00000000
Si      -2.21871429      -1.03436613      -2.39517405       0.00000000
Si       2.12920074       2.55662658      -1.18563328       0.00000000
Si       1.85443731       1.00725957      -2.94761892       0.00000000
Si       3.02303304      -2.13770412       0.61644973       0.00000000
Si      -1.48815666       0.62532423       3.40786388       0.00000000
