10
Lattice="16.28999089631971 0.0 0.0 0.0 16.28999089631971 0.0 0.0 0.0 34.3005442915855" Properties=species:S:1:pos:R:3:initial_magmoms:R:1 pbc="T T T"
Si       1.29275811      -1.33887253      -1.37240327       0.00000000
Si       1.36515087       1.33972216       1.34765885       0.00000000
Si      -1.34933328      -1.37304895       1.35194642       0.00000000
Si      -1.18565136       1.44922843      -1.45210063       0.00000000
Si      -1.80947691      -0.45388570      -2.80196985       0.00000000
Si       2.05869762       0.47578690      -2.78094360       0.00000000
Si      -0.22138110      -2.51027014      -2.66330532       0.00000000
Si       0.43574121       2.53268122      -2.79857409       0.00000000
Si      -2.69379585       2.69175307      -0.01837138       0.00000000
Si       0.00998577       2.69864374       2.70856800       0.00000000
