10
Lattice="16.28999089631971 0.0 0.0 0.0 16.28999089631971 0.0 0.0 0.0 34.3005442915855" Properties=species:S:1:pos:R:3:initial_magmoms:R:1 pbc="T T T"
Si      -1.35330804       1.35303111      -1.36190387       0.00000000
Si      -1.35757602      -1.35761512       1.35579837       0.00000000
Si       1.35751086       1.35791811       1.35596987       0.00000000
Si       1.35516510      -1.35892157      -1.36090916       0.00000000
Si      -0.00998577      -2.69864374      -2.70856800       0.00000000
Si      -0.00026064      -2.71428835       2.71286586       0.00000000
Si       2.71469604      -0.00003258       2.71314027       0.00000000
Si      -2.71487511       0.00043983       2.71338037       0.00000000
Si      -0.00003258       2.71502172       2.71338037       0.00000000
Si       2.71513575      -2.71350685      -0.00144062       0.00000000
