10
Lattice="16.28999089631971 0.0 0.0 0.0 16.28999089631971 0.0 0.0 0.0 34.3005442915855" Properties=species:S:1:pos:R:3:initial_magmoms:R:1 pbc="T T T"
Si      -1.35123921      -1.33544931       1.35960573       0.00000000
Si      -1.35426915       1.35537687      -1.35651868       0.00000000
Si       1.35873261      -1.36005047      -1.35648438       0.00000000
Si       1.34045523       1.36726857       1.37572700       0.00000000
Si       0.03261258      -2.56094161       2.76582593       0.00000000
Si       2.68312590      -0.00434943       2.71619302       0.00000000
Si      -2.71148679       2.71173114       0.00229814       0.00000000
Si       0.00219915       2.71252935      -2.71341467       0.00000000
Si      -2.71264338      -0.00205254      -2.71341467       0.00000000
Si       2.71692777      -0.00252495      -2.71365478       0.00000000
