10
Lattice="16.28999089631971 0.0 0.0 0.0 16.28999089631971 0.0 0.0 0.0 34.3005442915855" Properties=species:S:1:pos:R:3:initial_magmoms:R:1 pbc="T T T"
Si      -1.28586744       1.09954242       1.64855368       0.00000000
Si       1.27680598      -1.81313306       0.83782556       0.00000000
Si       1.98796385       1.29951846       0.23087709       0.00000000
Si      -0.92004291      -0.36276364      -2.18504879       0.00000000
Si       2.93606792      -0.40041472       1.66378313       0.00000000
Si       2.11146812      -2.64419999      -1.21941933       0.00000000
Si      -2.83024089       2.31068763       0.38855678       0.00000000
Si       1.40572504       3.23980407       1.38035758       0.00000000
Si      -1.50255702       3.23920134      -1.33899110       0.00000000
Si      -2.14477398      -0.30542773       3.28479346       0.00000000
