10
Lattice="16.28999089631971 0.0 0.0 0.0 16.28999089631971 0.0 0.0 0.0 34.3005442915855" Properties=species:S:1:pos:R:3:initial_magmoms:R:1 pbc="T T T"
Si      -1.35611535      -1.35711990      -1.35806221       0.00000000
Si       1.35917407       1.35806472      -1.35747910       0.00000000
Si      -1.35828205       1.36194174       1.35566117       0.00000000
Si       1.36160128      -1.35913986       1.35878252       0.00000000
Si      -0.02028431       2.71518462       2.70844109       0.00000000
Si      -2.71253491       2.71373481      -0.00068601       0.00000000
Si      -0.00946286      -2.71385210       2.71290017       0.00000000
Si      -2.71330054       0.00083079      -2.71523260       0.00000000
Si      -2.71431052      -2.71464542      -0.00089181       0.00000000
Si       0.00152637      -2.71425446      -2.71519830       0.00000000
