10
Lattice="16.28999089631971 0.0 0.0 0.0 16.28999089631971 0.0 0.0 0.0 34.3005442915855" Properties=species:S:1:pos:R:3:initial_magmoms:R:1 pbc="T T T"
Si      -1.77432309      -1.60329994       0.05824236       0.00000000
Si       0.92004291       0.36276364       2.18504879       0.00000000
Si       1.76691181      -0.82355887      -1.89514043       0.00000000
Si      -0.90284067       1.74842362      -1.89064706       0.00000000
Si       0.12790908       0.14057944      -3.38433369       0.00000000
Si      -0.58251411       3.60196498       0.84605770       0.00000000
Si       3.03151103      -2.28143635       0.96562946       0.00000000
Si      -3.70025721      -0.82104043       1.22641665       0.00000000
Si       2.19684889      -1.45036942       3.02287436       0.00000000
Si      -1.68228459      -3.17253193       1.80643917       0.00000000
