10
Lattice="16.28999089631971 0.0 0.0 0.0 16.28999089631971 0.0 0.0 0.0 34.3005442915855" Properties=species:S:1:pos:R:3:initial_magmoms:R:1 pbc="T T T"
Si      -0.53835192       2.18740491      -0.53251625       0.00000000
Si       2.32193003       0.22281462      -0.26308532       0.00000000
Si      -0.21620088      -0.55115586       2.34183667       0.00000000
Si      -1.38969990      -0.90707607      -1.77869002       0.00000000
Si      -2.37522861      -1.86233796       0.12097809       0.00000000
Si       2.07890604      -1.16673867      -2.10389366       0.00000000
Si       1.13525010      -3.07371612      -0.97056874       0.00000000
Si      -0.61768422      -3.39257658       0.68896112       0.00000000
Si       1.83089095       0.28918008       3.08269454       0.00000000
Si       0.60356079       2.38252653      -2.63805634       0.00000000
