10
Lattice="16.28999089631971 0.0 0.0 0.0 16.28999089631971 0.0 0.0 0.0 34.3005442915855" Properties=species:S:1:pos:R:3:initial_magmoms:R:1 pbc="T T T"
Si      -1.35597960      -1.35606105      -1.35782211       0.00000000
Si       1.35736425      -1.35762489       1.35747910       0.00000000
Si      -1.35798327       1.35738054       1.35758200       0.00000000
Si       1.35819504       1.35873261      -1.35813081       0.00000000
Si       0.00089595      -2.71477737       2.71437509       0.00000000
Si      -0.00032580       2.71500543       2.71444369       0.00000000
Si       2.71490769      -2.71472850       0.00006860       0.00000000
Si       2.71503801       2.71489140      -0.00010290       0.00000000
Si      -2.71526607      -2.71467963       0.00013720       0.00000000
Si       2.71567332      -0.00182448       2.71461519       0.00000000
