10
Lattice="16.28999089631971 0.0 0.0 0.0 16.28999089631971 0.0 0.0 0.0 34.3005442915855" Properties=species:S:1:pos:R:3:initial_magmoms:R:1 pbc="T T T"
Si      -0.81164925       1.12534578       1.97338002       0.00000000
Si       0.73505367      -1.97705214       1.24552206       0.00000000
Si      -1.39564575      -1.40379075      -1.47904030       0.00000000
Si       1.40313915       1.27594683      -1.59195775       0.00000000
Si       1.46331003       1.70375481       2.70140948       0.00000000
Si      -2.47044366       2.64508875      -0.18954491       0.00000000
Si       2.56695932      -2.78624160      -0.16855297       0.00000000
Si      -2.75175567      -2.69221572       0.06239272       0.00000000
Si       3.08894957       2.36591073      -0.27179766       0.00000000
Si       0.05045013       2.66957262      -2.97711741       0.00000000
