10
Lattice="16.28999089631971 0.0 0.0 0.0 16.28999089631971 0.0 0.0 0.0 34.3005442915855" Properties=species:S:1:pos:R:3:initial_magmoms:R:1 pbc="T T T"
Si       1.58517990      -1.54829934       0.72490811       0.00000000
Si      -1.51192377      -1.14419331      -1.44940461       0.00000000
Si      -1.62396639       1.21821507       1.28654553       0.00000000
Si       1.39512447       1.51785333      -1.45081093       0.00000000
Si      -0.02873556       2.89352754       1.72723917       0.00000000
Si       0.25749603      -2.47681305       2.45245599       0.00000000
Si      -3.28277709       1.22585508      -0.56187753       0.00000000
Si       0.56343852       3.56764032      -0.47379368       0.00000000
Si       3.14875926      -0.21413205       1.96226663       0.00000000
Si      -2.76644925      -2.52946233       0.01567536       0.00000000
