10
Lattice="16.28999089631971 0.0 0.0 0.0 16.28999089631971 0.0 0.0 0.0 34.3005442915855" Properties=species:S:1:pos:R:3:initial_magmoms:R:1 pbc="T T T"
Si       1.35865335       1.33532388      -1.38234701       0.00000000
Si      -1.36068741      -1.37598372      -1.37905415       0.00000000
Si       1.35268902      -1.39362579       1.38515965       0.00000000
Si      -1.22416092       1.53647280       1.47303770       0.00000000
Si      -2.52089379      -0.02448387       2.78757249       0.00000000
Si       2.70259312       2.70475902       0.01454344       0.00000000
Si      -2.71184517       2.69817786      -0.00806063       0.00000000
Si       2.69233205      -2.73525390      -0.03279134       0.00000000
Si       0.00006516       2.69505018      -2.74078652       0.00000000
Si       2.71381693      -0.01907559      -2.74257015       0.00000000
