10
Lattice="16.28999089631971 0.0 0.0 0.0 16.28999089631971 0.0 0.0 0.0 34.3005442915855" Properties=species:S:1:pos:R:3:initial_magmoms:R:1 pbc="T T T"
Si       1.35016407       1.35586557      -1.37239984       0.00000000
Si      -1.36399428      -1.36236528      -1.37308586       0.00000000
Si      -1.39587381       1.37108043       1.36451072       0.00000000
Si       1.48768425      -1.16170506       1.48109833       0.00000000
Si       2.71184517      -2.69817786       0.00806063       0.00000000
Si      -2.72723922       2.69767287      -0.02524521       0.00000000
Si       2.70824508       2.72056032       0.01560676       0.00000000
Si      -2.72285721      -2.70754461       0.00281265       0.00000000
Si       2.71191033      -0.00312768      -2.73272589       0.00000000
Si      -0.00250866       2.71259451      -2.73389211       0.00000000
