10
Lattice="16.28999089631971 0.0 0.0 0.0 16.28999089631971 0.0 0.0 0.0 34.3005442915855" Properties=species:S:1:pos:R:3:initial_magmoms:R:1 pbc="T T T"
Si      -1.86678513      -1.43202132       0.39867545       0.00000000
Si      -0.60274629       1.22717457      -2.12584602       0.00000000
Si       2.19613702      -1.06095141      -0.82712379       0.00000000
Si       0.78037245       0.53431200       2.46439258       0.00000000
Si       1.23986010      -2.90339928       0.14968766       0.00000000
Si      -1.03509918      -3.48180831      -0.57834180       0.00000000
Si       3.81856238       0.52300674       0.05007882       0.00000000
Si       2.90312954       1.51628949       2.03577274       0.00000000
Si      -2.43458937       2.80859148      -1.20796294       0.00000000
Si      -3.80816217      -0.76331682      -0.88728698       0.00000000
