10
Lattice="16.28999089631971 0.0 0.0 0.0 16.28999089631971 0.0 0.0 0.0 34.3005442915855" Properties=species:S:1:pos:R:3:initial_magmoms:R:1 pbc="T T T"
Si       2.12275709       0.98197749      -0.42861984       0.00000000
Si      -1.28938608       1.35490446       1.51656511       0.00000000
Si       0.39141612      -2.00924118       1.33326290       0.00000000
Si      -0.78037245      -0.53431200      -2.46439258       0.00000000
Si      -2.72518668       2.43322101       0.09336613       0.00000000
Si      -0.18583632      -1.19407329       3.49800576       0.00000000
Si      -2.32528347      -0.24602787       2.94940255       0.00000000
Si       3.03818993      -0.01130526      -2.41431376       0.00000000
Si       0.11275938       2.68890885       2.80866734       0.00000000
Si      -2.64715758      -1.96633332      -2.06571713       0.00000000
