10
Lattice="16.28999089631971 0.0 0.0 0.0 16.28999089631971 0.0 0.0 0.0 34.3005442915855" Properties=species:S:1:pos:R:3:initial_magmoms:R:1 pbc="T T T"
Si       2.09344419      -0.54218007       1.01889824       0.00000000
Si      -1.45297026       0.96277158       1.68093341       0.00000000
Si      -0.25583445       1.94642694      -1.43811972       0.00000000
Si      -0.65454849      -1.82858508      -1.53639084       0.00000000
Si      -3.37116663       1.05267609       0.38111356       0.00000000
Si      -2.63678085       1.83511737      -1.75601735       0.00000000
Si       3.66923879      -0.58640742      -0.85518165       0.00000000
Si       0.86951133       1.51793478      -3.44384517       0.00000000
Si       1.77652224      -2.70682785       2.11497274       0.00000000
Si      -0.34647201       2.90761839       2.65455491       0.00000000
