10
Lattice="16.28999089631971 0.0 0.0 0.0 16.28999089631971 0.0 0.0 0.0 34.3005442915855" Properties=species:S:1:pos:R:3:initial_magmoms:R:1 pbc="T T T"
Si      -2.09344419       0.54218007      -1.01889824       0.00000000
Si       0.65236563       1.72384038       1.56973099       0.00000000
Si      -0.31692195      -2.16464778       1.09607451       0.00000000
Si       1.57579460      -0.04422735      -1.87407989       0.00000000
Si      -0.76439196      -3.56931819      -0.74905570       0.00000000
Si       3.40155467       1.27624005      -1.11631184       0.00000000
Si       2.74273005       1.00392012       2.43489410       0.00000000
Si      -3.54641445       1.50495165       0.66203518       0.00000000
Si      -2.74799268      -1.28640501      -2.55528908       0.00000000
Si       1.07142588       3.80001717       0.38677315       0.00000000
