10
Lattice="16.28999089631971 0.0 0.0 0.0 16.28999089631971 0.0 0.0 0.0 34.3005442915855" Properties=species:S:1:pos:R:3:initial_magmoms:R:1 pbc="T T T"
Si       1.35785733      -1.35837423       1.36173237       0.00000000
Si      -1.35853713       1.35778779       1.36245268       0.00000000
Si      -1.35120663      -1.37451762      -1.37484890       0.00000000
Si       1.36418624       1.35451350      -1.38733088       0.00000000
Si       2.71448645       2.71298547       0.00003430       0.00000000
Si      -2.71753038       2.71393029       0.00668861       0.00000000
Si      -2.71505430      -2.71704168       0.00222954       0.00000000
Si       2.71382345      -2.71884987      -0.00027440       0.00000000
Si      -0.00078192       2.71355562       2.71934867       0.00000000
Si       2.71413459      -0.00151497       2.71886846       0.00000000
