10
Lattice="16.28999089631971 0.0 0.0 0.0 16.28999089631971 0.0 0.0 0.0 34.3005442915855" Properties=species:S:1:pos:R:3:initial_magmoms:R:1 pbc="T T T"
Si       0.58223881      -1.94028561      -1.14948048       0.00000000
Si      -1.46625868      -0.68079168       1.68216823       0.00000000
Si       2.16899232       0.71153091       0.57796449       0.00000000
Si      -1.34470270       1.33356456      -1.48199014       0.00000000
Si      -2.69159248      -2.14026165       0.26819611       0.00000000
Si       1.66589196       2.83631706       1.29179352       0.00000000
Si       0.41963529       2.41411284      -2.62536513       0.00000000
Si       2.25308130      -1.18908855      -2.57655543       0.00000000
Si      -2.00669572       1.40133096       2.70521684       0.00000000
Si       2.89873545      -0.92181852       2.17067686       0.00000000
