10
Lattice="16.28999089631971 0.0 0.0 0.0 16.28999089631971 0.0 0.0 0.0 34.3005442915855" Properties=species:S:1:pos:R:3:initial_magmoms:R:1 pbc="T T T"
Si      -0.70356510      -0.04466718      -2.19739700       0.00000000
Si       2.13983811      -0.98733690       0.13689355       0.00000000
Si      -1.37150397      -1.33755561       1.38577706       0.00000000
Si       0.22468797       2.35333715       0.22254206       0.00000000
Si      -2.64666888       0.44492877       2.30235672       0.00000000
Si       1.06771176       1.27483911      -3.14021658       0.00000000
Si       1.97762229       2.67219761      -1.43698781       0.00000000
Si       1.72077786      -3.06351369       1.31985138       0.00000000
Si       3.52911514       0.62931528       1.17321647       0.00000000
Si      -1.28086641      -2.29874706      -2.70689757       0.00000000
