10
Lattice="16.28999089631971 0.0 0.0 0.0 16.28999089631971 0.0 0.0 0.0 34.3005442915855" Properties=species:S:1:pos:R:3:initial_magmoms:R:1 pbc="T T T"
Si      -1.48711151      -1.20945105      -1.48824112       0.00000000
Si       1.40546210      -1.30033296       1.53215472       0.00000000
Si       1.08402782       1.40527314      -1.70063021       0.00000000
Si      -1.31551617       1.41481908       1.54407073       0.00000000
Si      -1.08200461       2.59261866      -2.52281471       0.00000000
Si      -2.67123161       0.68545062      -2.60678249       0.00000000
Si      -2.75781296      -2.66380596      -0.02284075       0.00000000
Si       2.66234963       2.76960951      -0.05754606       0.00000000
Si      -2.75514140       2.80841229       0.21374053       0.00000000
Si       0.03412103      -2.65854429       2.93112721       0.00000000
