10
Lattice="16.28999089631971 0.0 0.0 0.0 16.28999089631971 0.0 0.0 0.0 34.3005442915855" Properties=species:S:1:pos:R:3:initial_magmoms:R:1 pbc="T T T"
Si      -1.35720202      -1.35633971      -1.35744480       0.00000000
Si      -1.35764173       1.35713456       1.35713609       0.00000000
Si       1.35769657      -1.35739555       1.35717039       0.00000000
Si       1.35704497       1.35988757      -1.35854242       0.00000000
Si       2.71473502      -0.00097577       2.71355188       0.00000000
Si       0.00117777      -2.71338525       2.71536981       0.00000000
Si      -0.00133578       2.71679570      -2.71245426       0.00000000
Si      -0.00152637       2.71425446       2.71519830       0.00000000
Si      -2.71490836      -2.71490022       0.00003430       0.00000000
Si       2.71457212       2.71531331      -0.00034301       0.00000000
