10
Lattice="16.28999089631971 0.0 0.0 0.0 16.28999089631971 0.0 0.0 0.0 34.3005442915855" Properties=species:S:1:pos:R:3:initial_magmoms:R:1 pbc="T T T"
Si       1.35469269      -1.35744570      -1.36152657       0.00000000
Si       1.37179719       1.36036161       1.34808075       0.00000000
Si      -1.36113376       1.35827649      -1.36193817       0.00000000
Si      -1.38261864      -1.35790182       1.34784064       0.00000000
Si       2.63593377      -0.04243545       2.76513992       0.00000000
Si       2.70922248       2.71518462      -0.00517939       0.00000000
Si       2.71287144      -2.71370223      -0.00294985       0.00000000
Si      -2.71629734       2.71267596      -0.00171503       0.00000000
Si       2.71171485       0.00052128      -2.71814815       0.00000000
Si      -2.72061638      -2.71114470      -0.00493928       0.00000000
