10
Lattice="16.28999089631971 0.0 0.0 0.0 16.28999089631971 0.0 0.0 0.0 34.3005442915855" Properties=species:S:1:pos:R:3:initial_magmoms:R:1 pbc="T T T"
Si       0.95627692       1.84244787      -0.97681145       0.00000000
Si       1.24301350      -1.22984613       1.54167313       0.00000000
Si      -2.27495928      -0.57840903      -0.72802946       0.00000000
Si      -1.23986010       2.90339928      -0.14968766       0.00000000
Si      -3.10664523       1.47137796       0.24898779       0.00000000
Si       1.62563954       0.66215592      -2.97320714       0.00000000
Si      -1.46331003      -1.70375481      -2.70140948       0.00000000
Si      -0.52132449      -2.31039441       2.68504811       0.00000000
Si       2.02331102       0.27564309       3.31384604       0.00000000
Si      -0.06807153       1.42847010       3.64796783       0.00000000
