10
Lattice="16.28999089631971 0.0 0.0 0.0 16.28999089631971 0.0 0.0 0.0 34.3005442915855" Properties=species:S:1:pos:R:3:initial_magmoms:R:1 pbc="T T T"
Si       1.23098643      -1.48125363       1.31721024       0.00000000
Si      -1.34697842      -1.35562950      -1.35586697       0.00000000
Si       1.37106414       1.35471224      -1.35411764       0.00000000
Si      -1.38045437       1.35490772       1.35888542       0.00000000
Si       2.54167983      -0.11239285       2.73142247       0.00000000
Si      -2.70675359      -2.70696210       0.03587839       0.00000000
Si      -2.70484766      -0.00079332      -2.71379198       0.00000000
Si       0.01216700      -2.71378761      -2.71272866       0.00000000
Si       0.00946286       2.71385210      -2.71290017       0.00000000
Si       2.72572425      -0.00137813      -2.71454659       0.00000000
