10
Lattice="16.28999089631971 0.0 0.0 0.0 16.28999089631971 0.0 0.0 0.0 34.3005442915855" Properties=species:S:1:pos:R:3:initial_magmoms:R:1 pbc="T T T"
Si       1.35030021       1.35847197       1.38736518       0.00000000
Si      -1.36418624      -1.35451350       1.38733088       0.00000000
Si      -1.43962523       1.39359321      -1.33033020       0.00000000
Si       1.31551617      -1.41481908      -1.54407073       0.00000000
Si       2.70540503       2.71031391      -0.00584139       0.00000000
Si       2.72097827      -2.71515204      -0.01191602       0.00000000
Si      -2.71539287      -2.72903112       0.01248198       0.00000000
Si       2.70882593       0.00265527       2.74796563       0.00000000
Si      -0.00632892      -2.71288773       2.74906325       0.00000000
Si      -2.73238334       2.73246574       0.04207307       0.00000000
