10
Lattice="16.28999089631971 0.0 0.0 0.0 16.28999089631971 0.0 0.0 0.0 34.3005442915855" Properties=species:S:1:pos:R:3:initial_magmoms:R:1 pbc="T T T"
Si      -1.78598184       1.22824971      -1.05216978       0.00000000
Si       1.26205146      -1.62417816      -1.27104168       0.00000000
Si      -0.51372144      -1.84088403       1.53615073       0.00000000
Si       1.50350184       1.94986413       0.25883205       0.00000000
Si       0.51122907       2.33886933       2.39586006       0.00000000
Si       2.45029293      -0.11064168      -2.69544118       0.00000000
Si      -0.57114369       2.34297441      -2.75388934       0.00000000
Si       3.74769369      -0.66745017      -0.08595721       0.00000000
Si      -1.56330243       1.49473782       3.20302092       0.00000000
Si      -1.42915428      -0.84760128       3.52184465       0.00000000
