10
Lattice="10.86 0.0 0.0 0.0 10.86 0.0 0.0 0.0 10.86" Properties=species:S:1:pos:R:3:initial_magmoms:R:1 pbc="T T T"
Si       1.51791306      -1.07019870      -1.37686338       0.00000000
Si      -1.19708694       1.64480130      -1.37686338       0.00000000
Si       1.51791306       1.64480130       1.33813662       0.00000000
Si      -0.99991278      -1.41699108       1.99201722       0.00000000
Si      -2.09293920      -2.25956418       0.18170952       0.00000000
Si       0.16041306      -2.42769870      -2.73436338       0.00000000
Si      -2.55458694       0.28730130      -2.73436338       0.00000000
Si      -2.45331744       0.33121914       2.85493110       0.00000000
Si       2.81142594       0.06931938       2.58856788       0.00000000
Si       2.82171036      -2.59924326       0.13677084       0.00000000
