10
Lattice="10.86 0.0 0.0 0.0 10.86 0.0 0.0 0.0 10.86" Properties=species:S:1:pos:R:3:initial_magmoms:R:1 pbc="T T T"
Si       1.41120270      -1.18595544      -1.51363422       0.00000000
Si       1.41120270       1.52904456       1.20136578       0.00000000
Si      -1.30379730       1.52904456      -1.51363422       0.00000000
Si       0.02936544      -2.41314630       2.14191780       0.00000000
Si      -0.01028442       2.66856264       2.45179704       0.00000000
Si      -2.68863192      -2.42921910      -0.13851930       0.00000000
Si       2.76870270      -2.54345544      -0.15613422       0.00000000
Si       2.76870270       0.17154456       2.55886578       0.00000000
Si       0.05370270      -2.54345544      -2.87113422       0.00000000
Si      -2.82171036       2.59924326      -0.13677084       0.00000000
