10
Lattice="16.290000149 0.0 0.0 0.0 16.290000149 0.0 0.0 0.0 29.1751946751" Properties=species:S:1:pos:R:3:initial_magmoms:R:1 pbc="T T T"
Si      -1.36743148       1.38785914       1.31192098       0.00000000
Si      -1.36037791      -1.34628706      -1.36644942       0.00000000
Si       1.35379675       1.34809525      -1.37286796       0.00000000
Si       1.34680834      -1.33340167       1.40644861       0.00000000
Si       0.01467729       2.73715986       2.65386323       0.00000000
Si       2.66927942      -2.72640683       0.03961991       0.00000000
Si      -0.06815736      -2.61409542       2.78707717       0.00000000
Si      -2.69596244      -2.70982035       0.00262577       0.00000000
Si      -0.00996948      -2.69521962      -2.73990088       0.00000000
Si       2.72665280       2.71213841      -0.03999919       0.00000000
