10
Lattice="16.290000149 0.0 0.0 0.0 16.290000149 0.0 0.0 0.0 29.1751946751" Properties=species:S:1:pos:R:3:initial_magmoms:R:1 pbc="T T T"
Si       1.61487658      -0.15991893      -1.67669844       0.00000000
Si      -0.43316739       2.28951717      -0.30593109       0.00000000
Si       0.25117551      -0.51166890       2.29733710       0.00000000
Si      -1.89444557      -1.30212487      -0.63704038       0.00000000
H        1.32786307      -2.22687560       1.50030521       0.00000000
H       -2.77594635      -0.45025560      -1.52802165       0.00000000
Si      -1.49467267       1.03140136       2.74649448       0.00000000
Si       0.05338233      -0.93929770      -3.27412787       0.00000000
Si      -2.32883471       2.27510866       1.03251014       0.00000000
Si      -0.86245777      -2.78446602      -2.11403461       0.00000000
