10
Lattice="16.290000149 0.0 0.0 0.0 16.290000149 0.0 0.0 0.0 29.1751946751" Properties=species:S:1:pos:R:3:initial_magmoms:R:1 pbc="T T T"
Si      -1.34420795       1.35764119      -1.36840416       0.00000000
Si       1.32720383      -1.34890975      -1.39542039       0.00000000
Si       1.34387665       1.37906254       1.35527532       0.00000000
Si      -1.34388215      -1.37477827       1.36043933       0.00000000
Si       2.66567332      -2.70865235      -0.03279292       0.00000000
Si      -2.68814926       2.72393237      -0.01875965       0.00000000
Si      -2.72358001      -0.02743236       2.69365820       0.00000000
Si      -2.71255168      -2.71324613      -0.00939441       0.00000000
Si       2.72153173       0.03637557       2.70550333       0.00000000
Si       2.70551866       2.72782569      -0.00023340       0.00000000
