10
Lattice="16.290000149 0.0 0.0 0.0 16.290000149 0.0 0.0 0.0 29.1751946751" Properties=species:S:1:pos:R:3:initial_magmoms:R:1 pbc="T T T"
Si      -2.30694095      -0.08145977       0.35797964       0.00000000
H       -0.90458371       1.55906704      -1.50071366       0.00000000
Si       0.96951565      -0.40006774      -2.15543421       0.00000000
Si       1.01889064       2.15176241       0.39202709       0.00000000
Si       0.05318685      -2.06738021       1.28887258       0.00000000
H       -2.91885852       1.22424238      -0.08408291       0.00000000
Si       2.83905381       1.26498367       1.53916657       0.00000000
Si       2.88676722      -1.45643027      -1.37368487       0.00000000
Si       3.52720857      -0.78442378       0.77290926       0.00000000
Si      -3.15025797      -1.74101006      -1.04237136       0.00000000
