10
Lattice="16.290000149 0.0 0.0 0.0 16.290000149 0.0 0.0 0.0 29.1751946751" Properties=species:S:1:pos:R:3:initial_magmoms:R:1 pbc="T T T"
Si       0.43878744      -0.24788493       2.28330675       0.00000000
Si      -1.71866018       1.63059644       0.10430132       0.00000000
Si      -0.04833243      -2.29400669      -0.66639062       0.00000000
Si       1.87035266       0.89622694      -1.27603549       0.00000000
H       -0.92142757       0.16606026      -2.54063430       0.00000000
Si       2.15526476      -2.67577913       0.13767774       0.00000000
Si      -0.32661450       3.36978201      -0.81007846       0.00000000
Si       2.07195770      -1.98314462       2.36732198       0.00000000
Si       3.46335177       1.70750153       0.28722979       0.00000000
Si      -3.77615235       0.62377669      -0.61868918       0.00000000
