10
Lattice="16.290000149 0.0 0.0 0.0 16.290000149 0.0 0.0 0.0 29.1751946751" Properties=species:S:1:pos:R:3:initial_magmoms:R:1 pbc="T T T"
Si       1.37969785      -1.34734591      -1.33321887       0.00000000
Si      -1.30145698       1.30388419      -1.45598809       0.00000000
Si       1.37720548       1.34819299       1.35124914       0.00000000
Si      -1.34537482      -1.38515500       1.35655903       0.00000000
Si      -2.79222006       0.03328047       2.49512100       0.00000000
Si      -2.66879072       2.67683798      -0.20177565       0.00000000
Si       2.70780527      -0.03381804       2.67659071       0.00000000
Si       0.01102833      -2.68581377      -2.70305261       0.00000000
Si      -2.71197551      -2.69498504      -0.03095488       0.00000000
Si       2.72358001       0.02743236      -2.69365820       0.00000000
