10
Lattice="16.290000149 0.0 0.0 0.0 16.290000149 0.0 0.0 0.0 29.1751946751" Properties=species:S:1:pos:R:3:initial_magmoms:R:1 pbc="T T T"
Si      -1.29927531      -1.28992203       1.47237580       0.00000000
Si      -1.45047909       1.38497581      -1.22563242       0.00000000
Si       1.36210835       1.39558060       1.31800984       0.00000000
Si       1.43212929      -1.30705911      -1.35253577       0.00000000
Si      -2.62449940      -2.62582422       0.13536707       0.00000000
Si      -0.12859445       2.71202438      -2.58927810       0.00000000
Si       0.08561368      -2.52109320      -2.83408716       0.00000000
Si       2.71104580      -2.68003082       0.03495188       0.00000000
Si       2.65613221       0.04241916       2.74975335       0.00000000
Si       0.01162824       2.72217305       2.72466268       0.00000000
