10
Lattice="16.290000149 0.0 0.0 0.0 16.290000149 0.0 0.0 0.0 29.1751946751" Properties=species:S:1:pos:R:3:initial_magmoms:R:1 pbc="T T T"
Si      -1.32996122      -1.39986487       1.33864546       0.00000000
Si      -1.37765509       1.34268697      -1.35022801       0.00000000
Si       1.29658627      -1.35949825      -1.41648488       0.00000000
Si       1.35293338       1.38157120       1.35434171       0.00000000
Si       2.77040775       0.00979029       2.60963364       0.00000000
Si       2.60599277      -2.78474295      -0.11731346       0.00000000
Si      -0.01601307       2.69145011      -2.70573673       0.00000000
Si      -2.73730647      -0.09762597       2.66474558       0.00000000
Si      -2.71757779       2.69887835       0.02946695       0.00000000
Si      -2.72153173      -0.03637557      -2.70550333       0.00000000
