10
Lattice="16.290000149 0.0 0.0 0.0 16.290000149 0.0 0.0 0.0 29.1751946751" Properties=species:S:1:pos:R:3:initial_magmoms:R:1 pbc="T T T"
H       -0.17790309       1.38790964       0.60964487       0.00000000
Si       0.83416204      -1.24370730       1.71398434       0.00000000
Si       1.89566732       0.01440851      -1.33844123       0.00000000
Si      -1.90017965      -0.54880848      -1.28610093       0.00000000
Si       0.64353646       1.12000430      -2.94421477       0.00000000
Si      -2.62888022       1.64182187      -0.88465025       0.00000000
Si      -0.68908330       2.66833623      -1.78642635       0.00000000
Si       1.87414823       0.61028857       2.66514820       0.00000000
Si       2.32883471      -2.27510866      -1.03251014       0.00000000
Si      -0.99815347      -2.26606771       2.65565459       0.00000000
