10
Lattice="16.290000149 0.0 0.0 0.0 16.290000149 0.0 0.0 0.0 29.1751946751" Properties=species:S:1:pos:R:3:initial_magmoms:R:1 pbc="T T T"
Si      -1.43352001       1.31945743      -1.28280413       0.00000000
Si      -1.38003994      -1.31777956       1.36332767       0.00000000
Si       1.33522615       1.40431204       1.33861628       0.00000000
Si       1.34636851      -1.27931887      -1.46048107       0.00000000
Si      -0.07773588       2.65971719      -2.59794314       0.00000000
Si       2.68566716      -2.61576677      -0.03854043       0.00000000
Si      -0.02450016      -2.68799663       2.70252746       0.00000000
Si      -2.75353131      -2.64429056      -0.00026258       0.00000000
Si       2.69801498       0.06465501       2.70270251       0.00000000
Si      -2.74890495       0.06136443       2.68586842       0.00000000
