10
Lattice="16.290000149 0.0 0.0 0.0 16.290000149 0.0 0.0 0.0 29.1751946751" Properties=species:S:1:pos:R:3:initial_magmoms:R:1 pbc="T T T"
Si      -1.38111508       1.29930670      -1.35871799       0.00000000
Si       0.87340465       1.88447609       1.06857068       0.00000000
Si      -1.37228590      -1.31385367       1.36052685       0.00000000
Si       1.45363816      -1.35588187      -1.23028878       0.00000000
Si      -2.41913018       0.16169454       2.83792954       0.00000000
Si       0.07152939      -2.70518258      -2.57223104       0.00000000
Si      -2.56531664       2.75002896       0.05482019       0.00000000
Si       0.01366731       2.64002258      -2.68636440       0.00000000
Si       2.79718851      -0.01855431      -2.59761346       0.00000000
Si      -2.72973161      -0.04450428      -2.67212691       0.00000000
