10
Lattice="16.290000149 0.0 0.0 0.0 16.290000149 0.0 0.0 0.0 29.1751946751" Properties=species:S:1:pos:R:3:initial_magmoms:R:1 pbc="T T T"
Si       1.53831358      -1.27364995      -1.19457835       0.00000000
Si       1.39593898       1.32025564       1.36612557       0.00000000
Si      -1.21627657      -1.43510014       1.44336982       0.00000000
Si      -1.46807110       1.20964654      -1.45963499       0.00000000
H        0.35577360      -1.81475489      -2.24363082       0.00000000
Si      -2.66853008       2.67920003      -0.02593675       0.00000000
Si       2.85502045       2.49913037      -0.05102742       0.00000000
Si      -2.64782549      -0.06421518       2.72866260       0.00000000
Si      -0.13670568       2.54137034      -2.86004433       0.00000000
Si       0.06571386       2.76003102       2.68094657       0.00000000
