10
Lattice="16.290000149 0.0 0.0 0.0 16.290000149 0.0 0.0 0.0 29.1751946751" Properties=species:S:1:pos:R:3:initial_magmoms:R:1 pbc="T T T"
Si      -1.39028635      -1.34444629      -1.27584877       0.00000000
Si       1.33007688      -1.40895469       1.31089985       0.00000000
Si      -1.42514695       1.36001953       1.27031715       0.00000000
Si       1.29515275       1.31487994      -1.46905566       0.00000000
Si       2.62655401       2.67460625      -0.09035558       0.00000000
Si       2.66510430      -0.03209130       2.65613890       0.00000000
Si      -0.06876009       2.70958088       2.62483391       0.00000000
Si      -0.13203045      -2.74615194      -2.63939525       0.00000000
Si      -2.74988235      -0.02679705       2.65333808       0.00000000
Si       2.68055699      -2.73554714      -0.09575299       0.00000000
