10
Lattice="16.290000149 0.0 0.0 0.0 16.290000149 0.0 0.0 0.0 29.1751946751" Properties=species:S:1:pos:R:3:initial_magmoms:R:1 pbc="T T T"
Si      -1.34601176      -1.34772058       1.36907519       0.00000000
Si       1.35172792      -1.36932112      -1.35865964       0.00000000
Si      -1.36550926       1.34803009      -1.37190518       0.00000000
Si       1.33058350       1.34578207       1.41438426       0.00000000
Si      -2.64702696       2.69314427       0.08440384       0.00000000
Si       0.04644279       2.73849564      -2.62847206       0.00000000
Si       2.70518258       0.02842605      -2.67872342       0.00000000
Si      -2.71090037      -2.67735926      -0.00994874       0.00000000
Si       2.71821458       2.70515000       0.11069069       0.00000000
Si       0.00607617      -2.70633917       2.72875596       0.00000000
