10
Lattice="16.290000149 0.0 0.0 0.0 16.290000149 0.0 0.0 0.0 29.1751946751" Properties=species:S:1:pos:R:3:initial_magmoms:R:1 pbc="T T T"
Si      -0.51382407      -0.91191421      -2.09288259       0.00000000
Si       2.05749218       1.00681975       0.72299050       0.00000000
Si      -1.41600989       1.94851208       0.00297587       0.00000000
Si      -0.67934513      -1.76204045       1.50891189       0.00000000
H        1.45020097       1.57288096      -2.37987898       0.00000000
Si      -1.94307122      -0.33645366       2.83623738       0.00000000
H        2.85472479      -0.45771642      -1.92194512       0.00000000
Si       0.25285338       1.20581839      -3.26893469       0.00000000
Si       1.04984164       2.24793857       2.56499559       0.00000000
Si      -3.08327349       1.16354584       1.45213696       0.00000000
