10
Lattice="16.290000149 0.0 0.0 0.0 16.290000149 0.0 0.0 0.0 29.1751946751" Properties=species:S:1:pos:R:3:initial_magmoms:R:1 pbc="T T T"
Si       1.41657841      -1.34321314       1.25471717       0.00000000
Si      -1.49825647       1.23523976       1.27988662       0.00000000
Si      -1.03998619      -1.85399587      -0.95116386       0.00000000
Si       0.86576464       1.72763759      -1.38284529       0.00000000
H       -2.05205132       0.77762108      -2.05550333       0.00000000
Si      -1.87414823      -0.61028857      -2.66514820       0.00000000
Si      -0.07850151       2.66467098       2.51508267       0.00000000
Si       2.64875402      -2.54448010      -0.34066708       0.00000000
Si      -0.83979838       3.39563587      -1.25479595       0.00000000
Si      -0.04377123      -2.78060366       2.46889833       0.00000000
