10
Lattice="16.290000149 0.0 0.0 0.0 16.290000149 0.0 0.0 0.0 29.1751946751" Properties=species:S:1:pos:R:3:initial_magmoms:R:1 pbc="T T T"
Si       1.43547481      -1.22220613      -1.28607176       0.00000000
Si      -1.22911309       1.53026632      -1.23764093       0.00000000
Si       1.48626703       1.01711503       1.46827085       0.00000000
Si      -1.11922075      -1.43531191       1.55524210       0.00000000
H        2.08015157      -2.06340545      -0.20679378       0.00000000
Si      -1.99280459       0.34785666       2.83813376       0.00000000
Si      -0.12013875       1.81247429       2.98867777       0.00000000
Si       2.46751148      -0.83970064       2.36712942       0.00000000
Si      -0.00702099      -2.54826101      -2.49725079       0.00000000
Si       0.70094242      -2.32209065       2.70238158       0.00000000
