10
Lattice="16.290000149 0.0 0.0 0.0 16.290000149 0.0 0.0 0.0 29.1751946751" Properties=species:S:1:pos:R:3:initial_magmoms:R:1 pbc="T T T"
Si       1.38716682      -1.34969167       1.33158506       0.00000000
Si       1.37519367       1.34868169      -1.35028636       0.00000000
Si      -1.31476814      -1.36611199      -1.39396163       0.00000000
Si      -1.36958991       1.33869592       1.38086196       0.00000000
Si      -2.66255980      -2.71987616      -0.03658569       0.00000000
Si       0.02552480      -2.69845481       2.68709378       0.00000000
Si      -2.70242143       2.70476556       0.00796483       0.00000000
Si       0.02897014       2.70935934      -2.70553250       0.00000000
Si      -2.68342729      -0.00977400      -2.73497027       0.00000000
Si       2.70833470      -2.71199180      -0.05823369       0.00000000
