10
Lattice="16.290000149 0.0 0.0 0.0 16.290000149 0.0 0.0 0.0 29.1751946751" Properties=species:S:1:pos:R:3:initial_magmoms:R:1 pbc="T T T"
Si      -0.34798698       0.88343929       2.13512827       0.00000000
Si      -1.85473055      -0.92924677      -1.10894915       0.00000000
Si       1.05049324       1.76992481      -1.18095353       0.00000000
Si       1.58399074      -1.79479964      -0.09519866       0.00000000
Si       2.15379866       0.35486136      -2.66775063       0.00000000
Si      -0.67052899      -2.37996902      -2.52248733       0.00000000
Si       1.26648235       2.57727350       2.20436101       0.00000000
Si       2.22795074      -2.18025362       2.05597597       0.00000000
Si       3.42753006      -0.96956452      -1.23530692       0.00000000
Si      -3.15615495      -2.16648857       0.39112266       0.00000000
