10
Lattice="16.290000149 0.0 0.0 0.0 16.290000149 0.0 0.0 0.0 29.1751946751" Properties=species:S:1:pos:R:3:initial_magmoms:R:1 pbc="T T T"
Si      -0.53541972      -0.25972776       1.38375031       0.00000000
H       -0.66326365      -0.92233981      -1.62196577       0.00000000
H       -1.59464440       0.84088981      -1.17435994       0.00000000
H        1.28172979       1.74856862       0.41376261       0.00000000
Si       0.47105793      -0.98189605      -2.62524237       0.00000000
Si       2.19276434       1.82467550      -0.80138425       0.00000000
Si       2.54500301      -0.28931040      -1.73980438       0.00000000
Si       1.15281073      -1.18540702       2.69864716       0.00000000
Si      -2.33241851      -1.85528441       1.26039759       0.00000000
Si      -1.38354229       1.61565850       2.49698821       0.00000000
