10
Lattice="16.290000149 0.0 0.0 0.0 16.290000149 0.0 0.0 0.0 29.1751946751" Properties=species:S:1:pos:R:3:initial_magmoms:R:1 pbc="T T T"
Si       1.42954525       1.39411450       1.18238311       0.00000000
Si       1.42496776      -1.32595714      -1.28936855       0.00000000
Si      -1.32551731       1.43112538      -1.28452547       0.00000000
Si      -1.39478239      -1.34071588       1.32764641       0.00000000
Si       0.04833243      -2.66611916      -2.62451299       0.00000000
Si      -2.67530672       0.07242534      -2.63612471       0.00000000
Si       2.70327665       0.06968862       2.61482682       0.00000000
Si      -2.57898395       0.11000637       2.74118459       0.00000000
Si      -0.01366731      -2.64002258       2.68636440       0.00000000
Si       0.05546745       2.79223635      -2.60426540       0.00000000
