10
Lattice="16.290000149 0.0 0.0 0.0 16.290000149 0.0 0.0 0.0 29.1751946751" Properties=species:S:1:pos:R:3:initial_magmoms:R:1 pbc="T T T"
Si       1.36037791      -1.35377395       1.35133667       0.00000000
Si      -1.36236529       1.36289309       1.34585173       0.00000000
Si       1.34985457       1.38747470      -1.33549454       0.00000000
Si      -1.34656399      -1.38843907      -1.33905391       0.00000000
Si      -2.78055642      -0.04188485      -2.60061850       0.00000000
Si       0.00052128      -2.71643246       2.69389160       0.00000000
Si       2.79292053       0.05570366      -2.61756929       0.00000000
Si      -0.00281817       2.70694842       2.70909188       0.00000000
Si      -0.02738349       2.72768559      -2.69421253       0.00000000
Si      -2.72732069       0.01536147       2.69511696       0.00000000
