10
Lattice="16.290000149 0.0 0.0 0.0 16.290000149 0.0 0.0 0.0 29.1751946751" Properties=species:S:1:pos:R:3:initial_magmoms:R:1 pbc="T T T"
Si      -1.35630053       1.40802616      -1.31472180       0.00000000
Si       1.17333613       1.46684935       1.45100205       0.00000000
Si      -1.48627355      -1.19933497       1.43707381       0.00000000
Si       1.00765054      -1.24111882      -1.84200509       0.00000000
Si      -2.46585153      -0.29942649      -2.56201972       0.00000000
Si      -1.04984164      -2.24793857      -2.56499559       0.00000000
Si       2.39969621       0.49806675      -2.75638487       0.00000000
Si      -0.12768102      -2.53983908       2.81712471       0.00000000
Si       2.54764199       0.11552868       2.81185566       0.00000000
Si       2.47236590       2.95150368       0.17750976       0.00000000
