10
Lattice="16.290000149 0.0 0.0 0.0 16.290000149 0.0 0.0 0.0 29.1751946751" Properties=species:S:1:pos:R:3:initial_magmoms:R:1 pbc="T T T"
Si       1.35730399      -1.24178671       1.45682163       0.00000000
Si      -1.17154472       1.59146394       1.28659691       0.00000000
Si       1.31758897       1.42762303      -1.34413039       0.00000000
Si      -1.45913930      -1.38127798      -1.35136584       0.00000000
Si      -0.51929262       2.60924263      -2.27079293       0.00000000
Si       2.80012559      -2.43594146       0.09764938       0.00000000
Si      -1.45584872       3.42148647      -0.27844806       0.00000000
Si       0.00265364      -2.59340060      -2.69269542       0.00000000
Si      -2.64948219       0.28546596       2.66066689       0.00000000
Si       0.01109023      -2.70321149       2.68996754       0.00000000
