10
Lattice="16.290000149 0.0 0.0 0.0 16.290000149 0.0 0.0 0.0 29.1751946751" Properties=species:S:1:pos:R:3:initial_magmoms:R:1 pbc="T T T"
Si      -1.26372608       1.42558678       1.32732548       0.00000000
Si       1.63302690      -1.18656361       1.21134358       0.00000000
Si       0.67934513       1.76204045      -1.50891189       0.00000000
Si      -1.33382195      -1.97750828      -0.48252854       0.00000000
Si       0.29699765      -2.59349671       2.56406782       0.00000000
Si       0.16552106       0.85012624      -3.60179448       0.00000000
Si      -2.58561073       0.09853821       2.69097116       0.00000000
Si      -0.39726586      -2.78975212      -2.47487341       0.00000000
Si       0.24291322       2.81064405       2.49315751       0.00000000
Si      -2.40392835       2.92558629      -0.05677493       0.00000000
