10
Lattice="16.290000149 0.0 0.0 0.0 16.290000149 0.0 0.0 0.0 29.1751946751" Properties=species:S:1:pos:R:3:initial_magmoms:R:1 pbc="T T T"
Si      -2.19673421      -0.19513791      -0.65597508       0.00000000
Si       1.31346760      -0.26347446      -1.91228813       0.00000000
Si       0.51382407       0.91191421       2.09288259       0.00000000
Si       0.79676508      -2.25979769      -0.21385418       0.00000000
Si       0.76667745       2.11773260      -1.17605210       0.00000000
H        2.07784328      -2.21905640       0.60626055       0.00000000
H       -2.26612961      -1.26946342      -1.71827309       0.00000000
H        1.96402505       2.48479517      -0.28699639       0.00000000
H        3.36854886       0.45419778       0.17093747       0.00000000
Si      -2.64640338       1.93868921      -1.54628532       0.00000000
