10
Lattice="16.290000149 0.0 0.0 0.0 16.290000149 0.0 0.0 0.0 29.1751946751" Properties=species:S:1:pos:R:3:initial_magmoms:R:1 pbc="T T T"
Si       1.32063031       1.33887153      -1.36335685       0.00000000
Si      -1.28734984      -1.42273603      -1.34337184       0.00000000
Si      -1.28280493       1.43248039       1.33957906       0.00000000
Si       1.24794433      -1.48128229       1.36315262       0.00000000
H       -1.98169481      -2.25017030      -0.24883524       0.00000000
H       -1.50949657      -3.14452389       0.48918049       0.00000000
Si      -2.57061089      -0.01324377       2.61573125       0.00000000
Si       2.55587496       2.70644343       0.07390077       0.00000000
Si      -0.13740615       2.64136162      -2.63910058       0.00000000
Si       2.70852529      -0.04502556      -2.66407455       0.00000000
