10
Lattice="16.290000149 0.0 0.0 0.0 16.290000149 0.0 0.0 0.0 29.1751946751" Properties=species:S:1:pos:R:3:initial_magmoms:R:1 pbc="T T T"
Si      -1.30567609      -1.31629880      -1.44437636       0.00000000
Si       1.26506512      -1.38641096       1.42430383       0.00000000
Si      -1.32247108       1.39300515       1.36682870       0.00000000
Si       1.36798534       1.35509832      -1.37633981       0.00000000
Si      -2.66422952      -2.67020958      -0.11279130       0.00000000
Si       2.66403404       0.01972882       2.69348315       0.00000000
Si       2.69617421      -2.67956004       0.02371943       0.00000000
Si      -2.66927942       2.72640683      -0.03961991       0.00000000
Si       0.07827345       2.76149549       2.68099616       0.00000000
Si      -2.67924890       0.03118721      -2.77952080       0.00000000
