10
Lattice="16.290000149 0.0 0.0 0.0 16.290000149 0.0 0.0 0.0 29.1751946751" Properties=species:S:1:pos:R:3:initial_magmoms:R:1 pbc="T T T"
Si      -1.35578413      -1.34025976       1.31513900       0.00000000
Si      -1.40638087       1.36440154      -1.25352099       0.00000000
Si       1.33762078      -1.15479811      -1.55685257       0.00000000
Si       1.42214959       1.46015416       1.22487095       0.00000000
Si       0.42593463       2.38676195      -2.19519125       0.00000000
Si       2.17178282       0.84369169      -2.64434862       0.00000000
Si       0.07773588      -2.65971719       2.59794314       0.00000000
Si      -2.69148269       0.10129122       2.60424498       0.00000000
Si      -2.65971719      -2.63511929      -0.16147595       0.00000000
Si       2.76560220      -2.52092639      -0.22253088       0.00000000
