10
Lattice="16.290000149 0.0 0.0 0.0 16.290000149 0.0 0.0 0.0 29.1751946751" Properties=species:S:1:pos:R:3:initial_magmoms:R:1 pbc="T T T"
Si      -1.34395759      -1.34696798      -1.38774731       0.00000000
Si       1.30811959       1.34759352      -1.42316600       0.00000000
Si       1.42635241      -1.36469150       1.29459091       0.00000000
Si      -1.42403923       1.34930397       1.33552371       0.00000000
Si       0.08164548      -2.65525048       2.66649609       0.00000000
Si      -2.68251994      -2.69794657      -0.01680491       0.00000000
Si       2.60097545       2.78600053      -0.11179935       0.00000000
Si      -0.10761174       2.81348176       2.61532280       0.00000000
Si       2.67750587      -0.04310171       2.76516660       0.00000000
Si      -2.76498643       2.68855375      -0.04233321       0.00000000
