10
Lattice="16.290000149 0.0 0.0 0.0 16.290000149 0.0 0.0 0.0 29.1751946751" Properties=species:S:1:pos:R:3:initial_magmoms:R:1 pbc="T T T"
Si      -1.57237597       1.28016595      -1.11606790       0.00000000
Si      -1.39082392      -1.43589835       1.17611045       0.00000000
Si       1.06354153      -1.11821077      -1.86356556       0.00000000
Si       1.57001392       1.12721914       1.45727180       0.00000000
Si       2.09922716      -2.44882685      -0.25008977       0.00000000
Si       0.31089465      -3.03329577       1.19014372       0.00000000
Si       0.04603554       2.30293361      -2.50719953       0.00000000
Si       1.83356984       0.73927279      -3.14482341       0.00000000
Si      -2.98382304      -2.24717294      -0.38715483       0.00000000
Si      -2.54016488       2.74005947       0.38943050       0.00000000
