10
Lattice="16.290000149 0.0 0.0 0.0 16.290000149 0.0 0.0 0.0 29.1751946751" Properties=species:S:1:pos:R:3:initial_magmoms:R:1 pbc="T T T"
Si       1.34675947       1.33296184       1.38890557       0.00000000
Si       1.33022512      -1.43977537      -1.31482099       0.00000000
Si      -1.34149780      -1.41810967       1.35999295       0.00000000
Si      -1.42798141       1.36612828      -1.33432169       0.00000000
H        0.48286818       1.64941139      -3.21884963       0.00000000
Si      -2.76560220       2.52092639       0.22253088       0.00000000
Si       2.64989432       2.68685633      -0.04513111       0.00000000
Si      -0.06571386      -2.76003102      -2.68094657       0.00000000
Si      -2.73424395      -0.08083098      -2.70688331       0.00000000
Si       2.69509907      -0.05159043       2.75132881       0.00000000
