10
Lattice="16.290000149 0.0 0.0 0.0 16.290000149 0.0 0.0 0.0 29.1751946751" Properties=species:S:1:pos:R:3:initial_magmoms:R:1 pbc="T T T"
Si       1.32834200      -1.35694072       1.36773313       0.00000000
Si      -1.34404882      -1.36050823      -1.35221192       0.00000000
Si      -1.31923915       1.33563340       1.40571923       0.00000000
Si       1.34968190       1.36691020      -1.36253994       0.00000000
Si       2.63874219       0.07343532       2.69024470       0.00000000
Si      -2.65987358       2.70078428       0.03069230       0.00000000
Si      -2.68007318       0.01555695      -2.70518240       0.00000000
Si       2.70575925      -2.70272279       0.01061977       0.00000000
Si      -2.69698220      -2.71265969       0.01884718       0.00000000
Si       0.02208110      -2.71050941      -2.70159385       0.00000000
