10
Lattice="16.290000149 0.0 0.0 0.0 16.290000149 0.0 0.0 0.0 29.1751946751" Properties=species:S:1:pos:R:3:initial_magmoms:R:1 pbc="T T T"
Si      -1.19734759      -0.36706257      -0.88905571       0.00000000
H        1.40452381      -2.03059739       0.45793386       0.00000000
Si      -0.34469640       1.11715192      -2.52126197       0.00000000
Si       0.08029341       2.93158101      -1.03957054       0.00000000
Si      -1.96402505      -2.48479517       0.28699639       0.00000000
Si       1.99933688       1.17312436       2.18848970       0.00000000
Si      -1.45020097      -1.57288096       2.37987898       0.00000000
Si       0.60729121      -0.56606122       3.10286948       0.00000000
Si      -0.65055745      -2.74826964      -1.62529174       0.00000000
H        3.12021921       0.64202149      -0.73591511       0.00000000
