10
Lattice="16.290000149 0.0 0.0 0.0 16.290000149 0.0 0.0 0.0 29.1751946751" Properties=species:S:1:pos:R:3:initial_magmoms:R:1 pbc="T T T"
Si       1.29756367       1.28402913       1.50571429       0.00000000
Si      -1.33568227      -1.36474608       1.40794821       0.00000000
Si       1.48035376      -1.29935802      -1.34042514       0.00000000
Si      -1.35583300       1.38677016      -1.39839626       0.00000000
Si      -0.00834048      -2.55103276      -2.71548124       0.00000000
Si      -2.60846885       2.72961514       0.08719415       0.00000000
Si       2.69627195      -2.71306939       0.11000420       0.00000000
Si       2.28595943       3.07129789       0.35294984       0.00000000
Si       2.36926649       2.37866338      -1.87669440       0.00000000
Si       3.09796707       0.18803303      -2.27814508       0.00000000
