10
Lattice="16.290000149 0.0 0.0 0.0 16.290000149 0.0 0.0 0.0 29.1751946751" Properties=species:S:1:pos:R:3:initial_magmoms:R:1 pbc="T T T"
Si       1.34779166       1.35376417      -1.35737593       0.00000000
Si      -1.34394130       1.36629118       1.34964451       0.00000000
Si       1.34420795      -1.35764119       1.36840416       0.00000000
Si      -1.37127592      -1.34793235      -1.35507109       0.00000000
Si      -2.68082903      -0.08118936       2.60607426       0.00000000
Si       2.67141179      -2.70655094      -0.02701623       0.00000000
Si       2.66255980       2.71987616       0.03658569       0.00000000
Si      -0.02086749       2.71010216      -2.69838458       0.00000000
Si       2.68808460       0.02142135       2.72367947       0.00000000
Si      -0.02723688      -2.67879278      -2.74179727       0.00000000
