10
Lattice="16.290000149 0.0 0.0 0.0 16.290000149 0.0 0.0 0.0 29.1751946751" Properties=species:S:1:pos:R:3:initial_magmoms:R:1 pbc="T T T"
Si       1.33558453       1.36353329      -1.36907519       0.00000000
Si      -1.36140418      -1.34311540      -1.37706919       0.00000000
Si      -1.42415326       1.36229525       1.29914224       0.00000000
Si       1.40040244      -1.34117689       1.35924314       0.00000000
Si       2.70101234      -2.68679606      -0.07579716       0.00000000
Si       0.05564664      -2.71965299       2.67110577       0.00000000
Si       2.69596244       2.70982035      -0.00262577       0.00000000
Si       2.62780508       0.09572493       2.78445140       0.00000000
Si      -0.13129740       2.80070226       2.61050889       0.00000000
Si      -2.72502380      -2.69363786      -0.02736633       0.00000000
