10
Lattice="16.290000149 0.0 0.0 0.0 16.290000149 0.0 0.0 0.0 29.1751946751" Properties=species:S:1:pos:R:3:initial_magmoms:R:1 pbc="T T T"
Si       1.25213086      -1.10559579       1.60577354       0.00000000
Si      -1.81379378      -1.32229189      -0.60325550       0.00000000
Si       1.21814992       1.32216157      -1.49584141       0.00000000
Si      -1.33261975       1.54833193       1.15778843       0.00000000
Si      -0.64353646      -1.12000430       2.94421477       0.00000000
H        3.09855351      -0.49529583      -0.74641818       0.00000000
Si      -0.19749996      -2.84674269      -1.68142482       0.00000000
Si       2.75314035       2.04042026       0.11518367       0.00000000
Si      -3.03321432       0.54861462      -1.55506705       0.00000000
Si      -2.54371610      -1.66881278       1.65811384       0.00000000
