10
Lattice="16.290000149 0.0 0.0 0.0 16.290000149 0.0 0.0 0.0 29.1751946751" Properties=species:S:1:pos:R:3:initial_magmoms:R:1 pbc="T T T"
Si      -1.31227354      -1.36005211      -1.34510193       0.00000000
Si       1.31693248      -1.39136149       1.34179638       0.00000000
Si      -1.41895675       1.33066495       1.30197224       0.00000000
Si       1.30890151       1.28950012      -1.47052317       0.00000000
Si      -0.04546539       2.65717595       2.66556249       0.00000000
Si       2.69550632      -0.02762784       2.64671531       0.00000000
Si       2.68094306       2.69563664      -0.15824626       0.00000000
Si       2.64425798      -2.74989864      -0.02465304       0.00000000
Si      -2.77011453      -0.04471605       2.64922438       0.00000000
Si      -2.77013082       2.64956852      -0.10625606       0.00000000
