10
Lattice="16.290000149 0.0 0.0 0.0 16.290000149 0.0 0.0 0.0 29.1751946751" Properties=species:S:1:pos:R:3:initial_magmoms:R:1 pbc="T T T"
Si       1.33015996      -1.41963442      -1.28630516       0.00000000
Si      -1.34866540      -1.37395400       1.33689495       0.00000000
Si       1.38538306       1.35065278       1.32484559       0.00000000
Si      -1.30025152       1.34912152      -1.41890642       0.00000000
Si       2.66357792      -0.07949520      -2.61509523       0.00000000
Si       0.01475874       2.69676065       2.66366610       0.00000000
Si      -2.67797828       2.69808014      -0.06832831       0.00000000
Si      -2.70839171      -0.01630629       2.67629896       0.00000000
Si      -2.72855873      -0.05481585      -2.66169677       0.00000000
Si       0.03386691      -2.73321768       2.65902724       0.00000000
