10
Lattice="16.290000149 0.0 0.0 0.0 16.290000149 0.0 0.0 0.0 29.1751946751" Properties=species:S:1:pos:R:3:initial_magmoms:R:1 pbc="T T T"
Si      -1.22741893       1.85174948       0.66773268       0.00000000
Si      -1.53499042      -0.71825869      -1.61102507       0.00000000
Si       1.62246772       0.67390102      -1.56084374       0.00000000
Si       0.07307694      -1.45894870       1.93212727       0.00000000
H        0.34541316      -2.53571608      -0.86160185       0.00000000
H        0.06721254       2.40339404       1.59109842       0.00000000
H        1.55307232      -0.40042449      -2.62314175       0.00000000
Si      -2.75314035      -2.04042026      -0.11518367       0.00000000
H       -0.26630892       3.10798542      -2.01288421       0.00000000
Si       2.31985892      -1.95859559       2.21439728       0.00000000
