10
Lattice="16.290000149 0.0 0.0 0.0 16.290000149 0.0 0.0 0.0 29.1751946751" Properties=species:S:1:pos:R:3:initial_magmoms:R:1 pbc="T T T"
Si       1.38543193      -1.31458672      -1.35804696       0.00000000
Si       1.37021707       1.36140418       1.32747136       0.00000000
Si      -1.35553978       1.37021707      -1.33919979       0.00000000
Si      -1.35646831      -1.35389449       1.35892222       0.00000000
Si       0.00685809      -2.67832037      -2.66296589       0.00000000
Si      -0.00856854       2.70783785       2.65001211       0.00000000
Si       0.02450016       2.68799663      -2.70252746       0.00000000
Si       2.71490771      -2.68165982       0.01712584       0.00000000
Si      -2.73274527       0.01298313       2.67308969       0.00000000
Si      -2.73439056      -2.69003288       0.01414997       0.00000000
