10
Lattice="16.290000149 0.0 0.0 0.0 16.290000149 0.0 0.0 0.0 29.1751946751" Properties=species:S:1:pos:R:3:initial_magmoms:R:1 pbc="T T T"
Si      -1.32522409      -1.33590219      -1.33700873       0.00000000
Si       1.31685136      -1.43546015       1.27545199       0.00000000
Si      -1.44306595       1.33177104       1.28207475       0.00000000
Si       1.29927531       1.28992203      -1.47237580       0.00000000
Si       2.63083340      -0.05134119       2.63907141       0.00000000
Si      -0.07418466       2.68019210       2.61984496       0.00000000
Si      -2.74180250       0.00731095      -2.59172590       0.00000000
Si       2.66138366       2.68550264      -0.15436596       0.00000000
Si      -0.15120378       2.67489785      -2.69800822       0.00000000
Si      -0.08156403      -2.77047453       2.60963364       0.00000000
