10
Lattice="16.290000149 0.0 0.0 0.0 16.290000149 0.0 0.0 0.0 29.1751946751" Properties=species:S:1:pos:R:3:initial_magmoms:R:1 pbc="T T T"
Si       1.32188464       1.32704857      -1.36364568       0.00000000
Si      -1.25825590       1.40170564       1.36354649       0.00000000
Si      -1.72483409      -0.93994930      -1.27656298       0.00000000
Si       1.45047909      -1.38497581       1.22563242       0.00000000
Si      -3.43039710       0.72804898      -1.14851363       0.00000000
Si      -2.57290778       2.66559788      -0.10979793       0.00000000
Si      -2.59059872      -2.66758689       0.10628232       0.00000000
Si       2.58561073      -0.09853821      -2.69097116       0.00000000
Si      -2.66910023      -0.00291591       2.62136498       0.00000000
Si       2.81258744       0.01060479       2.54364227       0.00000000
