10
Lattice="16.290000149 0.0 0.0 0.0 16.290000149 0.0 0.0 0.0 29.1751946751" Properties=species:S:1:pos:R:3:initial_magmoms:R:1 pbc="T T T"
Si      -1.36645408      -1.34415307       1.34500565       0.00000000
Si      -1.38219022       1.34571691      -1.33593216       0.00000000
Si       1.35037585      -1.36529749      -1.35536284       0.00000000
Si       1.36544410       1.36221868       1.35247450       0.00000000
Si       0.00544086       2.70508484      -2.63962574       0.00000000
Si       0.00247608      -2.70109379       2.67288546       0.00000000
Si       2.71414208      -0.00361638      -2.68481811       0.00000000
Si      -2.70669755      -2.70640433      -0.02156047       0.00000000
Si      -2.69959511       2.71652042       0.05295298       0.00000000
Si      -2.68762196       0.01814706       2.73482440       0.00000000
