10
Lattice="16.290000149 0.0 0.0 0.0 16.290000149 0.0 0.0 0.0 29.1751946751" Properties=species:S:1:pos:R:3:initial_magmoms:R:1 pbc="T T T"
Si       1.36865915      -1.35633799       1.34100865       0.00000000
Si       1.39841539       1.33501438      -1.33418165       0.00000000
Si      -1.35097858       1.36099693       1.35927232       0.00000000
Si      -1.35775522      -1.34786719      -1.36726632       0.00000000
Si       0.08156403       2.77047453      -2.60963364       0.00000000
Si       2.69943059      -2.70585047      -0.04951031       0.00000000
Si       0.02086749      -2.71010216       2.69838458       0.00000000
Si      -2.71083521      -0.00166158       2.70182725       0.00000000
Si       2.68342729       0.00977400       2.73497027       0.00000000
Si      -2.71135649       2.71477088       0.00793565       0.00000000
