10
Lattice="16.290000149 0.0 0.0 0.0 16.290000149 0.0 0.0 0.0 29.1751946751" Properties=species:S:1:pos:R:3:initial_magmoms:R:1 pbc="T T T"
Si      -1.45982836      -1.29697723       1.30121368       0.00000000
Si       1.36743148      -1.38785914      -1.31192098       0.00000000
Si      -1.36365220       1.32545215      -1.38001588       0.00000000
Si       1.38210877       1.34930071       1.34194225       0.00000000
Si      -0.07152939       2.70518258       2.57223104       0.00000000
Si      -0.22172319      -2.68719842       2.67314804       0.00000000
Si       2.72122823      -0.03976389      -2.68478894       0.00000000
Si       2.72565911       2.68662827      -0.02538242       0.00000000
Si       0.00705357      -2.73414621      -2.67837040       0.00000000
Si      -0.00952965       2.67908600      -2.73864635       0.00000000
