10
Lattice="16.290000149 0.0 0.0 0.0 16.290000149 0.0 0.0 0.0 29.1751946751" Properties=species:S:1:pos:R:3:initial_magmoms:R:1 pbc="T T T"
Si      -1.38098476      -1.36111096       1.31973993       0.00000000
Si      -1.36780615       1.34350147      -1.35227027       0.00000000
Si       1.35529543      -1.36888129      -1.34879843       0.00000000
Si       1.37487601       1.36808308       1.33330640       0.00000000
Si       2.77123854      -0.07899021       2.52219558       0.00000000
Si       0.01032786       2.69865029      -2.68382616       0.00000000
Si      -2.68754051       2.71176374       0.03203436       0.00000000
Si      -0.05546745      -2.79223635       2.60426540       0.00000000
Si      -2.67660992       0.00873144       2.72528411       0.00000000
Si       2.73013886      -0.02632464      -2.69126583       0.00000000
