10
Lattice="16.290000149 0.0 0.0 0.0 16.290000149 0.0 0.0 0.0 29.1751946751" Properties=species:S:1:pos:R:3:initial_magmoms:R:1 pbc="T T T"
Si      -1.26403885       1.40155903       1.36008923       0.00000000
Si       1.33059979      -1.38201103       1.32534157       0.00000000
Si       1.35032846       1.41449329      -1.30993707       0.00000000
Si      -1.37720548      -1.34819299      -1.35124914       0.00000000
H       -1.95838382       0.57412477       2.45462583       0.00000000
H       -1.48618558      -0.32022882       3.19264155       0.00000000
Si       2.61593456       0.04103451       2.63977161       0.00000000
Si      -2.83025721       2.48847671       0.05870049       0.00000000
Si      -0.08195499       2.76636783      -2.60540323       0.00000000
Si       0.00249237      -2.69553890      -2.68446801       0.00000000
