10
Lattice="16.290000149 0.0 0.0 0.0 16.290000149 0.0 0.0 0.0 29.1751946751" Properties=species:S:1:pos:R:3:initial_magmoms:R:1 pbc="T T T"
Si      -1.39268098      -1.34307793      -1.32942610       0.00000000
Si      -1.35873262       1.35558865       1.35399161       0.00000000
Si       1.32988303      -1.36967950       1.37275126       0.00000000
Si       1.36029646       1.34470693      -1.37187600       0.00000000
Si      -0.03653847      -2.73832622      -2.61861960       0.00000000
Si       2.70723512       2.70174539      -0.00956946       0.00000000
Si      -2.70215753       2.71353935      -0.00927771       0.00000000
Si       2.68960934      -2.72732721       0.03334725       0.00000000
Si       2.70291827      -0.02194263       2.71571465       0.00000000
Si      -0.01026270       2.71705799       2.70433632       0.00000000
