10
Lattice="16.290000149 0.0 0.0 0.0 16.290000149 0.0 0.0 0.0 29.1751946751" Properties=species:S:1:pos:R:3:initial_magmoms:R:1 pbc="T T T"
Si       1.35244468       1.38552967       1.32181137       0.00000000
Si      -1.33846949       1.35974260      -1.36262747       0.00000000
Si       1.38864106      -1.35065278      -1.33248949       0.00000000
Si      -1.34968190      -1.36691020       1.36253994       0.00000000
Si       2.66185118      -0.03971502       2.62098279       0.00000000
Si      -2.66567332       2.70865235       0.03279292       0.00000000
Si       0.04017114      -2.71212212      -2.68283420       0.00000000
Si      -2.69151527       0.00685809      -2.72286257       0.00000000
Si      -2.69373071      -2.72741843       0.01032802       0.00000000
Si       0.02076975       2.71192664      -2.72382535       0.00000000
