10
Lattice="16.290000149 0.0 0.0 0.0 16.290000149 0.0 0.0 0.0 29.1751946751" Properties=species:S:1:pos:R:3:initial_magmoms:R:1 pbc="T T T"
Si      -1.28107819      -0.04074129      -0.82011472       0.00000000
Si       2.30677805      -0.20155617      -0.91971884       0.00000000
Si       2.16380072       0.21318723       1.43892060       0.00000000
Si       1.44601444       1.87745510      -1.71118352       0.00000000
H        1.29070558       2.67325418      -0.43532308       0.00000000
Si       0.64229842      -1.16047843       2.72128711       0.00000000
Si      -2.64063020      -1.42082196       0.52066052       0.00000000
Si      -0.80374861      -2.60244155       1.44732306       0.00000000
Si      -0.67800610      -1.55781760      -2.57958319       0.00000000
Si      -2.07784328       2.21905640      -0.60626055       0.00000000
