10
Lattice="16.290000149 0.0 0.0 0.0 16.290000149 0.0 0.0 0.0 29.1751946751" Properties=species:S:1:pos:R:3:initial_magmoms:R:1 pbc="T T T"
Si      -1.34622353       1.36067765      -1.35524614       0.00000000
Si       1.35630541       1.36265200       1.35066564       0.00000000
Si      -1.37519367      -1.34868169       1.35028636       0.00000000
Si       1.31740489      -1.37080351      -1.38888514       0.00000000
Si      -2.66020557      -0.02344131      -2.71886557       0.00000000
Si       0.01197315      -2.69837336       2.68187142       0.00000000
Si       2.70503597      -0.01143558      -2.69257872       0.00000000
Si      -0.02759526       2.71751411       2.68525574       0.00000000
Si      -2.68996181      -2.71479368      -0.04367527       0.00000000
Si       2.69959511      -2.71652042      -0.05295298       0.00000000
