10
Lattice="10.86 0.0 0.0 0.0 10.86 0.0 0.0 0.0 10.86" Properties=species:S:1:pos:R:3:initial_magmoms:R:1 pbc="T T T"
Si       1.40187396      -1.40187396       1.23764904       0.00000000
Si      -1.36842516       1.36842516       1.36082316       0.00000000
Si       1.40187396       1.31312604      -1.47735096       0.00000000
Si      -1.31312604      -1.40187396      -1.47735096       0.00000000
Si       2.75937396      -0.04437396       2.59514904       0.00000000
Si       0.04437396      -2.75937396       2.59514904       0.00000000
Si      -2.70522600       2.70522600      -0.12913626       0.00000000
Si       2.75937396       2.67062604      -0.11985096       0.00000000
Si      -2.67062604      -2.75937396      -0.11985096       0.00000000
Si       0.04437396       2.67062604      -2.83485096       0.00000000
