10
Lattice="10.86 0.0 0.0 0.0 10.86 0.0 0.0 0.0 10.86" Properties=species:S:1:pos:R:3:initial_magmoms:R:1 pbc="T T T"
Si       1.36842516      -1.36842516      -1.36082316       0.00000000
Si      -1.33680084       1.33680084      -1.48995942       0.00000000
Si       0.05529912       2.65970088       2.59182588       0.00000000
Si      -2.65970088      -0.05529912       2.59182588       0.00000000
Si      -2.65970088       2.65970088      -0.12317412       0.00000000
Si       2.77029912      -0.05529912       2.59182588       0.00000000
Si       0.05529912      -2.77029912       2.59182588       0.00000000
Si       2.77029912       2.65970088      -0.12317412       0.00000000
Si      -2.65970088      -2.77029912      -0.12317412       0.00000000
Si       0.05529912       2.65970088      -2.83817412       0.00000000
