10
Lattice="16.28999089631971 0.0 0.0 0.0 16.28999089631971 0.0 0.0 0.0 34.25627252547053" Properties=species:S:1:pos:R:3:initial_magmoms:R:1 pbc="T T T"
Si       1.35431802      -1.35622325      -1.35939242       0.00000000
Si      -1.36169739       1.36153097      -1.35894709       0.00000000
Si      -1.35596331      -1.37332775       1.37261535       0.00000000
Si       1.37464794       1.35772074       1.38193306       0.00000000
Si      -2.63249658       0.06198466       2.68994105       0.00000000
Si       2.71191033      -2.71319654       0.00208963       0.00000000
Si       2.71140534       2.71687037      -0.00534398       0.00000000
Si       2.71200807       0.00194088      -2.71720906       0.00000000
Si      -2.71971324      -2.70984080      -0.00174707       0.00000000
Si      -0.00335574      -2.71275671      -2.71762013       0.00000000
