10
Lattice="16.28999089631971 0.0 0.0 0.0 16.28999089631971 0.0 0.0 0.0 34.25627252547053" Properties=species:S:1:pos:R:3:initial_magmoms:R:1 pbc="T T T"
Si      -1.40064678      -0.68318794       1.74182966       0.00000000
Si       0.72264069       2.16497684      -0.54813492       0.00000000
Si       1.84212207      -1.48736238      -0.38719886       0.00000000
Si      -1.36410831      -0.81051547      -1.88258876       0.00000000
Si       0.09599697       0.12873661       3.30778752       0.00000000
Si       1.73102427       1.38207944      -2.50033247       0.00000000
Si      -1.90068462      -2.86942227       0.81485441       0.00000000
Si       0.16979067      -0.10235659      -3.54117564       0.00000000
Si      -1.28972817      -3.10903188      -1.40827615       0.00000000
Si      -1.28260944       3.34618103      -0.92570777       0.00000000
