10
Lattice="16.28999089631971 0.0 0.0 0.0 16.28999089631971 0.0 0.0 0.0 34.25627252547053" Properties=species:S:1:pos:R:3:initial_magmoms:R:1 pbc="T T T"
Si       1.32879159       1.22763069      -1.49271791       0.00000000
Si      -1.26946341      -1.59339006      -1.27868460       0.00000000
Si      -1.58547312       0.73360386       1.69479577       0.00000000
Si       1.68259410      -0.83540007       1.62388525       0.00000000
Si      -0.19376955      -2.38402521       1.93753586       0.00000000
Si       3.12548085       2.05635186      -0.20180381       0.00000000
Si       0.02601513       2.64179817      -2.82631534       0.00000000
Si      -2.67690312      -0.10451664      -2.80048610       0.00000000
Si      -1.59974316      -1.22823342       3.38071917       0.00000000
Si       2.74014090      -0.10428858      -2.83484516       0.00000000
