10
Lattice="16.28999089631971 0.0 0.0 0.0 16.28999089631971 0.0 0.0 0.0 34.25627252547053" Properties=species:S:1:pos:R:3:initial_magmoms:R:1 pbc="T T T"
Si       0.16935084       0.24736365       2.29071822       0.00000000
Si       1.16976861      -1.89161109      -0.66505165       0.00000000
Si       0.62406990       2.28291318      -0.68283066       0.00000000
Si      -2.13889329      -1.25402049       0.16744475       0.00000000
Si       1.08250308      -3.17663145       1.30115673       0.00000000
Si      -1.85544729       1.20791979       2.93285241       0.00000000
Si       0.52463574      -1.86470001       3.15938927       0.00000000
Si       1.55517372       2.05066665       2.72498523       0.00000000
Si       0.24896007       3.50360433       1.34692313       0.00000000
Si      -1.07984781       1.08776475      -3.43953722       0.00000000
