10
Lattice="16.28999089631971 0.0 0.0 0.0 16.28999089631971 0.0 0.0 0.0 34.25627252547053" Properties=species:S:1:pos:R:3:initial_magmoms:R:1 pbc="T T T"
Si       1.35775521       1.34050410      -1.38391993       0.00000000
Si       1.38267891      -1.28054061       1.42684306       0.00000000
Si      -1.34933328      -1.37850867      -1.37607524       0.00000000
Si      -1.32082578       1.31435865       1.55074807       0.00000000
Si      -0.46221246      -2.34439164       2.69895045       0.00000000
Si      -2.70442670       2.68146432       0.01106478       0.00000000
Si       2.71005327       2.70508482      -0.00808448       0.00000000
Si       2.70705591      -2.71810053      -0.01178416       0.00000000
Si       0.00431685       2.69614161      -2.74153102       0.00000000
Si      -2.71192173      -0.01801674      -2.74279851       0.00000000
