10
Lattice="16.28999089631971 0.0 0.0 0.0 16.28999089631971 0.0 0.0 0.0 34.25627252547053" Properties=species:S:1:pos:R:3:initial_magmoms:R:1 pbc="T T T"
Si       1.09739214       1.55229039      -1.46688867       0.00000000
Si      -1.61981244      -1.19171124      -1.39899270       0.00000000
Si       1.70494398      -1.30002345       1.47127347       0.00000000
Si      -1.23030225      -0.50078718       2.49252204       0.00000000
Si       2.41106661       0.19901493      -2.95782525       0.00000000
Si       2.70117522      -2.75766894      -0.09766469       0.00000000
Si      -0.29898666      -2.50606989      -2.94974076       0.00000000
Si       2.11102110       3.25531215      -0.17220638       0.00000000
Si       0.33917409      -2.70288567       2.97067136       0.00000000
Si      -0.29004345       2.88779346      -2.95854463       0.00000000
