10
Lattice="16.28999089631971 0.0 0.0 0.0 16.28999089631971 0.0 0.0 0.0 34.25627252547053" Properties=species:S:1:pos:R:3:initial_magmoms:R:1 pbc="T T T"
Si       1.24297587      -1.02744288       1.78828119       0.00000000
Si       1.36576989       1.40286222      -1.49939789       0.00000000
Si      -0.46094184      -2.22259131      -0.96842537       0.00000000
Si      -1.56947634       2.20209849      -0.47814932       0.00000000
Si      -2.24658648      -1.74962745       0.51922261       0.00000000
Si      -2.52314181      -0.01360215       2.14721862       0.00000000
Si       3.00570048       2.05218162       0.31639111       0.00000000
Si       3.44077380      -0.07574850       1.43972343       0.00000000
Si       2.36200113      -0.05478327      -3.06833604       0.00000000
Si       0.86786604       0.19324827       3.81803499       0.00000000
