10
Lattice="16.28999089631971 0.0 0.0 0.0 16.28999089631971 0.0 0.0 0.0 34.25627252547053" Properties=species:S:1:pos:R:3:initial_magmoms:R:1 pbc="T T T"
Si       2.17046331       0.67373811       0.52110671       0.00000000
Si      -0.03155373      -0.65262627      -2.25108369       0.00000000
Si      -0.57914208      -2.10367431       0.85945610       0.00000000
Si      -1.59482358       1.45437120       0.91813713       0.00000000
Si       3.28913019      -1.22543154      -0.34684495       0.00000000
Si      -2.91933090      -1.97776890       0.19803562       0.00000000
Si       2.31352209      -0.83670327      -2.55925329       0.00000000
Si      -3.22054929      -0.18357201       1.64944044       0.00000000
Si      -0.16943229      -1.71584199       3.20532696       0.00000000
Si      -1.55505969       3.36452031      -0.55998760       0.00000000
