10
Lattice="16.28999089631971 0.0 0.0 0.0 16.28999089631971 0.0 0.0 0.0 34.25627252547053" Properties=species:S:1:pos:R:3:initial_magmoms:R:1 pbc="T T T"
Si       1.35703845      -1.35255549      -1.35411695       0.00000000
Si      -1.35707103      -1.35568317       1.35689171       0.00000000
Si      -1.35423657       1.35781122      -1.35785089       0.00000000
Si       1.35819504       1.35896292       1.35689171       0.00000000
Si      -2.68478748      -0.02133669      -2.70559275       0.00000000
Si       2.69475696      -0.00284109      -2.71412599       0.00000000
Si       0.00187335      -2.70734592      -2.70208148       0.00000000
Si      -2.71524978      -2.71192341      -0.00078789       0.00000000
Si       0.00074934      -2.71337322       2.71402322       0.00000000
Si      -2.71435383       0.00178049       2.71433153       0.00000000
