10
Lattice="16.28999089631971 0.0 0.0 0.0 16.28999089631971 0.0 0.0 0.0 34.25627252547053" Properties=species:S:1:pos:R:3:initial_magmoms:R:1 pbc="T T T"
Si      -1.35615879       1.35699284       1.35497336       0.00000000
Si      -1.35555606      -1.35793666      -1.35689171       0.00000000
Si       1.35866745       1.35728606      -1.35706299       0.00000000
Si       1.35993807      -1.35964878       1.36367446       0.00000000
Si      -0.01128897       2.69873498       2.72142258       0.00000000
Si      -2.71179630       2.71372178       0.00013703       0.00000000
Si      -2.71301805      -0.00033883      -2.71463983       0.00000000
Si       0.00215028       2.71424306      -2.71436578       0.00000000
Si      -2.71324611      -2.71610079       0.00092492       0.00000000
Si       0.00172674      -2.71540032      -2.71433153       0.00000000
