10
Lattice="16.28999089631971 0.0 0.0 0.0 16.28999089631971 0.0 0.0 0.0 34.25627252547053" Properties=species:S:1:pos:R:3:initial_magmoms:R:1 pbc="T T T"
Si      -1.87636365      -1.54862514       0.31365061       0.00000000
Si      -1.68259410       0.83540007      -1.62388525       0.00000000
Si       0.24591384       0.87907356       2.38680712       0.00000000
Si       1.41097464      -1.99842299      -1.26261840       0.00000000
Si      -0.35442153      -3.16785586       1.09185078       0.00000000
Si      -3.26806722       1.56900393       0.07091052       0.00000000
Si       1.44288675       2.89175193      -1.82568906       0.00000000
Si      -3.28233726      -0.39283335       1.75683392       0.00000000
Si      -0.35380251       2.06303076      -3.11660316       0.00000000
Si       2.37001581      -0.59631174      -2.96875300       0.00000000
