10
Lattice="16.28999089631971 0.0 0.0 0.0 16.28999089631971 0.0 0.0 0.0 34.25627252547053" Properties=species:S:1:pos:R:3:initial_magmoms:R:1 pbc="T T T"
Si      -2.24072208       0.19842849      -0.43587706       0.00000000
Si       1.23452136       1.79712909       0.81889665       0.00000000
Si       1.16732511      -0.08047260      -2.04222308       0.00000000
Si      -0.09298332      -2.02748924       1.26779110       0.00000000
Si      -2.35910151      -2.07614258      -1.09421447       0.00000000
Si       3.25488861       0.70084467       0.58328188       0.00000000
Si      -2.79858942       1.51035993       1.42235549       0.00000000
Si       0.96444945      -3.32710937      -0.48733001       0.00000000
Si      -2.15345655       1.48344885      -2.40208543       0.00000000
Si       0.90912861      -2.29171792      -2.67298418       0.00000000
