10
Lattice="16.28999089631971 0.0 0.0 0.0 16.28999089631971 0.0 0.0 0.0 34.25627252547053" Properties=species:S:1:pos:R:3:initial_magmoms:R:1 pbc="T T T"
Si       0.70835436      -2.17156518       0.60311627       0.00000000
Si      -1.32429555      -0.45778810      -1.90934293       0.00000000
Si      -1.31136129       0.20864232       2.14978784       0.00000000
Si       1.96084359       0.09201244      -1.63039395       0.00000000
Si       1.07774640       2.26411126       0.52689602       0.00000000
Si       1.45318203      -1.58585823       2.79226459       0.00000000
Si      -2.86539471       1.79069128       1.43811338       0.00000000
Si       0.48088080       0.41056501       3.65518058       0.00000000
Si      -1.23131223       1.56970114      -3.17713403       0.00000000
Si      -3.38651181      -1.39575393      -0.99459717       0.00000000
