10
Lattice="16.28999089631971 0.0 0.0 0.0 16.28999089631971 0.0 0.0 0.0 34.25627252547053" Properties=species:S:1:pos:R:3:initial_magmoms:R:1 pbc="T T T"
Si      -0.56483946       1.94553099      -1.19578437       0.00000000
Si       0.20831652       0.23571630       2.36207408       0.00000000
Si      -1.47817089      -1.82324196      -0.41326790       0.00000000
Si       2.08029816      -1.05178014      -0.52710156       0.00000000
Si       1.39641138       3.08892609      -0.81118899       0.00000000
Si       1.89929997      -2.79445176       1.09962696       0.00000000
Si      -0.34010262      -3.46972113       0.84784322       0.00000000
Si      -2.00878506       3.22041897       0.12164409       0.00000000
Si       1.71851355       3.07664343       1.50600935       0.00000000
Si       2.40186276       1.18662876       2.80901592       0.00000000
