10
Lattice="16.28999089631971 0.0 0.0 0.0 16.28999089631971 0.0 0.0 0.0 34.25627252547053" Properties=species:S:1:pos:R:3:initial_magmoms:R:1 pbc="T T T"
Si      -1.13871987       1.61668476       1.20777408       0.00000000
Si      -0.48122289      -1.82783574       1.34688888       0.00000000
Si      -0.20831652      -0.23571630      -2.36207408       0.00000000
Si       2.19354624       0.95091246       0.44694184       0.00000000
Si       1.51019703       2.84092713      -0.85606473       0.00000000
Si       1.53914436      -2.92412016       1.11127410       0.00000000
Si      -0.81158409       3.38908563      -0.28583450       0.00000000
Si      -0.16311177       1.22795649       3.42018242       0.00000000
Si       1.87198164      -1.28749644      -2.88917564       0.00000000
Si       1.69098345      -3.03016806      -1.26244712       0.00000000
