10
Lattice="16.28999089631971 0.0 0.0 0.0 16.28999089631971 0.0 0.0 0.0 34.25627252547053" Properties=species:S:1:pos:R:3:initial_magmoms:R:1 pbc="T T T"
Si      -1.11866688       1.89916965       0.86795166       0.00000000
Si       2.27286225      -0.00615762       0.78539400       0.00000000
Si      -0.60250194      -2.32880211       0.10557789       0.00000000
Si      -0.97560810       0.38872827      -2.21240834       0.00000000
Si      -3.28913019       1.22543154       0.34684495       0.00000000
Si       3.35183040       0.86620446      -1.08989818       0.00000000
Si       0.16311177      -1.22795649      -3.42018242       0.00000000
Si      -0.31811112      -3.05579223      -2.07329354       0.00000000
Si       2.35665801      -0.27704403      -2.97324058       0.00000000
Si      -3.32068392       0.57280527      -1.90423874       0.00000000
