10
Lattice="16.28999089631971 0.0 0.0 0.0 16.28999089631971 0.0 0.0 0.0 34.25627252547053" Properties=species:S:1:pos:R:3:initial_magmoms:R:1 pbc="T T T"
Si      -1.35703845       1.35700587      -1.35713151       0.00000000
Si      -1.35669636      -1.35770634       1.35764535       0.00000000
Si       1.35881406       1.35570267       1.35767961       0.00000000
Si       1.35744570      -1.35796698      -1.35699448       0.00000000
Si      -2.71464705      -0.00089595      -2.71450281       0.00000000
Si      -2.71500543       2.71489140       0.00006851       0.00000000
Si       2.71546155       2.71443528       0.00017128       0.00000000
Si       2.71518462      -0.00164529      -2.71505091       0.00000000
Si      -2.71502172      -2.71546155       0.00010277       0.00000000
Si      -0.00053757       2.71588509      -2.71463983       0.00000000
