10
Lattice="16.28999089631971 0.0 0.0 0.0 16.28999089631971 0.0 0.0 0.0 34.25627252547053" Properties=species:S:1:pos:R:3:initial_magmoms:R:1 pbc="T T T"
Si      -1.42109073       1.29590208       1.36603814       0.00000000
Si       1.34956134       1.36192545      -1.37922682       0.00000000
Si      -1.36313091      -1.35567009      -1.37604098       0.00000000
Si       1.39259952      -1.40763519       1.48559260       0.00000000
Si       0.13344768       2.49678459       2.66431734       0.00000000
Si      -2.44429821      -0.22827177       2.85800241       0.00000000
Si       2.69866656      -2.69925300      -0.02212956       0.00000000
Si       2.68701921       2.71220355      -0.02065654       0.00000000
Si      -2.73740418      -2.69477325      -0.00585783       0.00000000
Si       2.70400968       0.00407250      -2.73642683       0.00000000
