10
Lattice="16.28999089631971 0.0 0.0 0.0 16.28999089631971 0.0 0.0 0.0 34.25627252547053" Properties=species:S:1:pos:R:3:initial_magmoms:R:1 pbc="T T T"
Si      -1.35759231       1.35697329      -1.36148206       0.00000000
Si       1.35855342      -1.35874890      -1.36209867       0.00000000
Si      -1.36676358      -1.34890974       1.37124510       0.00000000
Si       1.34301276       1.37572308       1.38254968       0.00000000
Si       2.67480171      -0.03544704       2.73413166       0.00000000
Si      -2.71191033       2.71319654      -0.00208963       0.00000000
Si       2.71559187       2.71342530       0.00126748       0.00000000
Si      -2.71906164      -2.71349046      -0.00459034       0.00000000
Si       2.71720458      -2.71539639      -0.00582357       0.00000000
Si      -0.00026064      -2.71445157      -2.71977828       0.00000000
