10
Lattice="16.28999089631971 0.0 0.0 0.0 16.28999089631971 0.0 0.0 0.0 34.25627252547053" Properties=species:S:1:pos:R:3:initial_magmoms:R:1 pbc="T T T"
Si      -0.31392459      -2.26952280      -0.57057279       0.00000000
Si      -0.05532084       1.03539144      -2.18565418       0.00000000
Si      -1.05743277       1.29962013       1.75512110       0.00000000
Si       2.36258757      -0.13729212       0.66481185       0.00000000
Si      -0.96444945       3.32710937       0.48733001       0.00000000
Si       2.22770637       1.84942066       2.03407009       0.00000000
Si      -3.32355096       1.25096679      -0.60688446       0.00000000
Si       0.20287566       3.24663677      -1.55489308       0.00000000
Si       1.86991281       0.07262082      -3.13383407       0.00000000
Si       3.20787567      -1.03635351      -1.53964903       0.00000000
