10
Lattice="16.28999089631971 0.0 0.0 0.0 16.28999089631971 0.0 0.0 0.0 34.25627252547053" Properties=species:S:1:pos:R:3:initial_magmoms:R:1 pbc="T T T"
Si       1.29665297      -1.35065277       1.47251697       0.00000000
Si      -1.42025994       1.36322865       1.45209337       0.00000000
Si      -1.04606235      -1.73754027      -1.36978034       0.00000000
Si       1.71461277       1.15276185      -1.34473899       0.00000000
Si       3.13008182      -0.85274892      -1.59494694       0.00000000
Si       2.55335391      -2.68600597      -0.05436473       0.00000000
Si      -2.76491799      -2.68918741       0.05439214       0.00000000
Si       2.76062787       2.71332756       0.03925086       0.00000000
Si       2.65199312       0.00171045       2.84420398       0.00000000
Si      -2.90522376       2.62769103       0.00638537       0.00000000
