10
Lattice="16.28999089631971 0.0 0.0 0.0 16.28999089631971 0.0 0.0 0.0 34.25627252547053" Properties=species:S:1:pos:R:3:initial_magmoms:R:1 pbc="T T T"
Si      -0.31250736       1.44536609       1.93438428       0.00000000
Si       1.67016483       1.36441782      -1.19557884       0.00000000
Si       1.04229936      -2.09364360       1.23963243       0.00000000
Si      -2.51356329      -0.80433897       0.63154899       0.00000000
Si      -2.17663722      -0.25704384      -1.66927484       0.00000000
Si      -1.17560043      -1.91331330       2.22573404       0.00000000
Si       0.30550266      -0.08219071       3.75873735       0.00000000
Si       1.60735059       0.51326369      -3.40010823       0.00000000
Si       2.38902447      -0.96899829       2.79209331       0.00000000
Si       1.63962108       2.63808731       2.28016729       0.00000000
