10
Lattice="16.28999089631971 0.0 0.0 0.0 16.28999089631971 0.0 0.0 0.0 34.25627252547053" Properties=species:S:1:pos:R:3:initial_magmoms:R:1 pbc="T T T"
Si       1.06318314       0.22852052       2.15218578       0.00000000
Si      -0.61801002       1.52755679      -1.82435307       0.00000000
Si       2.08352181      -0.88680758      -0.96664404       0.00000000
Si      -2.32639119      -0.93206120       0.67145757       0.00000000
Si      -1.48110309      -1.83112259      -1.53300331       0.00000000
Si       0.73679670      -2.01145289      -2.51910492       0.00000000
Si      -2.46127239       1.05465158       2.04071581       0.00000000
Si       1.33411842       2.72027801      -1.47857006       0.00000000
Si       0.10756287      -1.69602962       3.17487311       0.00000000
Si      -0.49782240       1.59827168       3.23067661       0.00000000
