10
Lattice="16.28999089631971 0.0 0.0 0.0 16.28999089631971 0.0 0.0 0.0 34.25627252547053" Properties=species:S:1:pos:R:3:initial_magmoms:R:1 pbc="T T T"
Si      -1.71885564      -0.95164714       1.42417248       0.00000000
Si       1.04606235       1.73754027       1.36978034       0.00000000
Si      -0.54325521       0.48428541      -2.36594504       0.00000000
Si       1.64900412      -1.96573548       0.23790930       0.00000000
Si      -1.86799059      -2.51158310      -1.73083339       0.00000000
Si       2.34271532       0.38688750       2.84229731       0.00000000
Si      -0.39789954      -2.33281018       2.85685281       0.00000000
Si      -2.73479778       1.68344118      -2.09525182       0.00000000
Si       0.34161759      -1.99196075      -3.30912352       0.00000000
Si      -3.27906297      -2.18564461       0.14587227       0.00000000
