10
Lattice="16.28999089631971 0.0 0.0 0.0 16.28999089631971 0.0 0.0 0.0 34.25627252547053" Properties=species:S:1:pos:R:3:initial_magmoms:R:1 pbc="T T T"
Si      -1.35754344       1.35713619      -1.35675469       0.00000000
Si       1.35682668       1.35676152       1.35836473       0.00000000
Si       1.35804843      -1.35850455      -1.35737130       0.00000000
Si      -1.35863487      -1.35799956       1.35863878       0.00000000
Si      -2.71459818       2.71435383       0.00034256       0.00000000
Si       2.71497884       2.71451673       0.00071938       0.00000000
Si      -2.71529865       0.00070047      -2.71429727       0.00000000
Si      -0.00076563       2.71573848      -2.71422876       0.00000000
Si      -2.71362078       0.00187335       2.71638690       0.00000000
Si      -2.71567332      -2.71508688       0.00044533       0.00000000
