10
Lattice="16.28999089631971 0.0 0.0 0.0 16.28999089631971 0.0 0.0 0.0 34.25627252547053" Properties=species:S:1:pos:R:3:initial_magmoms:R:1 pbc="T T T"
Si      -1.35705474       1.35721764       1.35709725       0.00000000
Si       1.35754344      -1.35713619       1.35675469       0.00000000
Si      -1.35775521      -1.35643572      -1.35754258       0.00000000
Si       1.35677781       1.35860229      -1.35747407       0.00000000
Si      -0.00079821       2.71415835       2.71364640       0.00000000
Si      -2.71485882       0.00125433      -2.71347512       0.00000000
Si       2.71437012      -0.00037467       2.71511942       0.00000000
Si       0.00239463       2.71489140      -2.71484537       0.00000000
Si      -2.71567332      -0.00092853       2.71422876       0.00000000
Si      -2.71464705      -2.71526607      -0.00010277       0.00000000
