10
Lattice="16.28999089631971 0.0 0.0 0.0 16.28999089631971 0.0 0.0 0.0 34.25627252547053" Properties=species:S:1:pos:R:3:initial_magmoms:R:1 pbc="T T T"
Si      -0.09321138      -0.03710862      -2.31305333       0.00000000
Si       1.86005086       1.26889326       0.56211149       0.00000000
Si       0.75585600      -2.05508124       0.90169411       0.00000000
Si      -1.91449854       1.24735788       0.67988462       0.00000000
Si      -0.77993262      -2.06260722       2.71672947       0.00000000
Si       1.16375760      -3.14058168      -1.21161078       0.00000000
Si       1.36619343       1.74728169       2.83124825       0.00000000
Si       1.66570137       3.03194367      -1.02909326       0.00000000
Si      -2.23606314      -0.99105102      -2.65623286       0.00000000
Si       1.62709407      -1.51164684      -2.85276120       0.00000000
