10
Lattice="16.28999089631971 0.0 0.0 0.0 16.28999089631971 0.0 0.0 0.0 34.25627252547053" Properties=species:S:1:pos:R:3:initial_magmoms:R:1 pbc="T T T"
Si       1.07896815       0.87236208      -1.87529217       0.00000000
Si       1.19817837      -2.07580212       0.18796427       0.00000000
Si      -2.27286225       0.00615762      -0.78539400       0.00000000
Si       0.46555191       1.36270737       1.95161519       0.00000000
Si       3.42668295      -1.21477788       0.34578301       0.00000000
Si       3.36448773       0.22903740      -1.60727095       0.00000000
Si      -2.87536419      -2.32264449      -0.67981611       0.00000000
Si       0.08379576      -0.27088641      -3.75863458       0.00000000
Si       0.82295451       3.56956254       1.05540209       0.00000000
Si      -3.39152913       1.90532727       0.08255766       0.00000000
