10
Lattice="16.28999089631971 0.0 0.0 0.0 16.28999089631971 0.0 0.0 0.0 34.25627252547053" Properties=species:S:1:pos:R:3:initial_magmoms:R:1 pbc="T T T"
Si      -1.90104300       0.75315186       1.08595870       0.00000000
Si       1.88464599       0.31513005       1.33476215       0.00000000
Si       0.10772577      -2.15093160      -0.93598466       0.00000000
Si       0.32783625       1.82232972      -1.51642326       0.00000000
Si       3.36427989      -0.05453892      -0.54234561       0.00000000
Si       2.23790458       0.95285097      -2.56805716       0.00000000
Si      -1.31103549       3.10472739       1.09044628       0.00000000
Si       0.81507015       3.57088203       0.05970872       0.00000000
Si      -1.05585264      -3.66676497       0.77076656       0.00000000
Si      -1.20544371      -2.48402952      -2.85995502       0.00000000
