10
Lattice="16.28999089631971 0.0 0.0 0.0 16.28999089631971 0.0 0.0 0.0 34.25627252547053" Properties=species:S:1:pos:R:3:initial_magmoms:R:1 pbc="T T T"
Si       0.63943137      -0.07501545       2.25303630       0.00000000
Si      -1.01887434      -1.76536359      -1.28300089       0.00000000
Si       1.84489137       1.06385103      -1.27210739       0.00000000
Si       1.55778012      -2.28190320       1.81037650       0.00000000
Si      -2.26525482      -0.38933100      -2.72015510       0.00000000
Si       0.46221246       2.34439164      -2.69895045       0.00000000
Si      -2.31832438      -3.16429992       0.22602301       0.00000000
Si      -0.85861332       3.65875029      -1.14820238       0.00000000
Si      -1.14621327       0.39794841       3.74068428       0.00000000
Si      -3.60802222       0.93926511      -1.28320643       0.00000000
