10
Lattice="16.28999089631971 0.0 0.0 0.0 16.28999089631971 0.0 0.0 0.0 34.25627252547053" Properties=species:S:1:pos:R:3:initial_magmoms:R:1 pbc="T T T"
Si       1.34276740      -1.32859611      -1.43694867       0.00000000
Si      -1.69964164      -1.04185953       1.31328345       0.00000000
Si      -1.33912765       1.39295790      -1.42591814       0.00000000
Si      -3.29042530       0.74834631       1.18492513       0.00000000
Si       2.58914788      -2.70462870       0.00020554       0.00000000
Si       2.74940890       2.71948518       0.13500405       0.00000000
Si      -2.80990288      -2.66463675      -0.01236652       0.00000000
Si       0.00144552      -2.68302816      -2.79774560       0.00000000
Si      -2.79450883       2.71148679      -0.04669133       0.00000000
Si       2.72090140       0.02661786      -2.79181926       0.00000000
