10
Lattice="16.28999089631971 0.0 0.0 0.0 16.28999089631971 0.0 0.0 0.0 34.25627252547053" Properties=species:S:1:pos:R:3:initial_magmoms:R:1 pbc="T T T"
Si       0.87531057       1.57664394       1.51436789       0.00000000
Si       1.88731053      -0.08376318      -1.43211853       0.00000000
Si      -0.35740260      -2.20685517       0.89621310       0.00000000
Si      -1.34040636       0.84318669      -1.88135554       0.00000000
Si       0.14281443      -0.30317319      -3.23523270       0.00000000
Si      -0.75396636       1.62759906       3.24098775       0.00000000
Si      -0.82295451      -3.56956254      -1.05540209       0.00000000
Si       1.49480298       3.53121588       0.28836946       0.00000000
Si       1.97353350       1.63416393      -2.89016907       0.00000000
Si      -2.23317981      -2.10861018       2.37382399       0.00000000
