10
Lattice="16.28999089631971 0.0 0.0 0.0 16.28999089631971 0.0 0.0 0.0 34.25627252547053" Properties=species:S:1:pos:R:3:initial_magmoms:R:1 pbc="T T T"
Si       1.14227109      -0.49855545       1.95305396       0.00000000
Si       0.41567193       2.31619365      -0.16628004       0.00000000
Si      -2.23471826      -0.80272233      -0.09105322       0.00000000
Si       0.75766419      -1.56019104      -1.67413923       0.00000000
Si       2.20131657       1.84322979      -1.65392802       0.00000000
Si      -0.10432116       0.58808529       3.65007639       0.00000000
Si       3.11966532      -0.36365796      -2.09658782       0.00000000
Si       3.28116438       0.75546504       1.78560920       0.00000000
Si       0.93248847      -2.94394509       2.25800347       0.00000000
Si       3.10539528      -2.32549524      -0.41066442       0.00000000
