10
Lattice="16.28999089631971 0.0 0.0 0.0 16.28999089631971 0.0 0.0 0.0 34.25627252547053" Properties=species:S:1:pos:R:3:initial_magmoms:R:1 pbc="T T T"
Si       0.86099166      -2.01113082      -0.83808018       0.00000000
Si      -2.26121490      -0.47333853      -0.41515200       0.00000000
Si       0.38226114      -0.11407887       2.34045836       0.00000000
Si       0.95562027       1.92455014      -1.02268733       0.00000000
Si      -0.60538527       3.29430131       0.05580350       0.00000000
Si      -2.43395406       0.76396842      -2.50341554       0.00000000
Si      -0.10756287       1.69602962      -3.17487311       0.00000000
Si      -2.45294820      -2.80210806       0.17073336       0.00000000
Si       2.67275310       0.27350910       2.59686670       0.00000000
Si       0.77476869      -3.72905793       0.61997037       0.00000000
