10
Lattice="16.28999089631971 0.0 0.0 0.0 16.28999089631971 0.0 0.0 0.0 34.25627252547053" Properties=species:S:1:pos:R:3:initial_magmoms:R:1 pbc="T T T"
Si      -0.30121839       1.79419689       1.45140482       0.00000000
Si      -0.52284384       0.48239577      -2.24125214       0.00000000
Si      -0.82758087      -2.13553755       0.55608238       0.00000000
Si       2.34018882      -0.12590541       0.66142048       0.00000000
Si       1.50195429      -0.47816037      -2.88338633       0.00000000
Si       0.42932295       0.40334040       3.29542100       0.00000000
Si       0.00811242      -1.91549223       2.75280134       0.00000000
Si       2.91933090       1.97776890      -0.19803562       0.00000000
Si       1.32450732       3.43214010       0.72010151       0.00000000
Si       1.85723919      -2.59022403      -2.01471528       0.00000000
