10
Lattice="16.28999089631971 0.0 0.0 0.0 16.28999089631971 0.0 0.0 0.0 34.25627252547053" Properties=species:S:1:pos:R:3:initial_magmoms:R:1 pbc="T T T"
Si      -1.24402399       1.92394674       0.42765555       0.00000000
Si       0.13278468      -0.30244014      -2.32826312       0.00000000
Si       2.31037975       0.25700733       0.39744150       0.00000000
Si      -0.68956059      -1.86025284       1.29132517       0.00000000
Si      -3.47252857       1.06292250       0.26983681       0.00000000
Si       1.61873893      -2.10927807      -2.56346682       0.00000000
Si       3.29181967      -1.33196814      -1.08229328       0.00000000
Si      -0.52764776      -1.15398360       3.49890337       0.00000000
Si       0.78838876      -3.64397363       0.78566805       0.00000000
Si      -3.45234526      -0.44212689      -1.63991719       0.00000000
