10
Lattice="16.28999089631971 0.0 0.0 0.0 16.28999089631971 0.0 0.0 0.0 34.25627252547053" Properties=species:S:1:pos:R:3:initial_magmoms:R:1 pbc="T T T"
Si       0.82758087       2.13553755      -0.55608238       0.00000000
Si      -2.31037975      -0.25700733      -0.39744150       0.00000000
Si       0.83569329       0.22004532       2.19671896       0.00000000
Si       0.98143992      -1.58897547      -1.47973477       0.00000000
Si      -2.17759507      -0.55944747      -2.72570462       0.00000000
Si       2.68482006      -0.45468648      -2.57079766       0.00000000
Si       3.16776969       2.00963214       0.10533810       0.00000000
Si      -2.99994034      -2.11726017       0.89388367       0.00000000
Si       0.30473703       2.61793332      -2.79733452       0.00000000
Si      -0.83680101      -0.37106991       3.74075279       0.00000000
