10
Lattice="16.28999089631971 0.0 0.0 0.0 16.28999089631971 0.0 0.0 0.0 34.25627252547053" Properties=species:S:1:pos:R:3:initial_magmoms:R:1 pbc="T T T"
Si      -1.18386256       1.51176087       1.34331252       0.00000000
Si       1.51414084      -1.23856128       1.31320809       0.00000000
Si       1.91567305       0.83725713      -1.10858978       0.00000000
Si      -1.62118636      -1.07186571      -1.40047740       0.00000000
Si       0.93784951       0.26529894      -3.17002041       0.00000000
Si      -2.55253453       0.14985171       2.69124621       0.00000000
Si       0.16714680      -2.56453470       2.69045832       0.00000000
Si      -2.67340633      -2.60481987      -0.02062571       0.00000000
Si      -3.48424108       0.93584421      -1.23499687       0.00000000
Si      -2.65768648       2.75030586       0.05500190       0.00000000
