10
Lattice="16.28999089631971 0.0 0.0 0.0 16.28999089631971 0.0 0.0 0.0 34.25627252547053" Properties=species:S:1:pos:R:3:initial_magmoms:R:1 pbc="T T T"
Si       1.35721764       1.35697329       1.35672043       0.00000000
Si      -1.35902094      -1.35718506       1.35545295       0.00000000
Si       1.35705474      -1.35790182      -1.35791940       0.00000000
Si      -1.35805983       1.35733167      -1.35788515       0.00000000
Si       2.71065600       0.00133578       2.71433153       0.00000000
Si       2.71443528      -2.71508688      -0.00075364       0.00000000
Si      -0.00063531       2.71445157      -2.71522219       0.00000000
Si       2.71445157       2.71526607      -0.00078789       0.00000000
Si      -0.00083079      -2.71510317      -2.71501665       0.00000000
Si       2.71480995      -0.00052128      -2.71535922       0.00000000
