10
Lattice="16.28999089631971 0.0 0.0 0.0 16.28999089631971 0.0 0.0 0.0 34.25627252547053" Properties=species:S:1:pos:R:3:initial_magmoms:R:1 pbc="T T T"
Si       1.32082578      -1.31435865      -1.55074807       0.00000000
Si       1.61981244       1.19171124       1.39899270       0.00000000
Si      -1.38360092       1.36710567      -1.53968329       0.00000000
Si       2.70350469      -2.59489926      -0.12390501       0.00000000
Si      -2.76283799       2.62084923      -0.00393947       0.00000000
Si       2.71720458       2.74400163      -0.06789597       0.00000000
Si      -2.74940890      -2.71948518      -0.13500405       0.00000000
Si       0.85861332      -3.65875029       1.14820238       0.00000000
Si       0.38951019       0.69092406       3.89151473       0.00000000
Si       2.67858099       0.02614545      -2.93466799       0.00000000
