10
Lattice="16.28999089631971 0.0 0.0 0.0 16.28999089631971 0.0 0.0 0.0 34.25627252547053" Properties=species:S:1:pos:R:3:initial_magmoms:R:1 pbc="T T T"
Si      -1.34888188      -1.35327546      -1.34282951       0.00000000
Si       1.35635427      -1.35834165       1.35997478       0.00000000
Si      -1.35921176       1.35655945       1.35983775       0.00000000
Si       1.34592867       1.36592750      -1.38481059       0.00000000
Si      -2.71206413       2.71529769       0.00095918       0.00000000
Si       2.70788670       2.71984423      -0.00047959       0.00000000
Si       2.71653669      -2.71454931      -0.00202112       0.00000000
Si       2.71438641      -0.00037467       2.71707203       0.00000000
Si      -0.00092527       2.71510547       2.71679798       0.00000000
Si      -2.71755386      -2.71518462       0.00510419       0.00000000
