10
Lattice="16.28999089631971 0.0 0.0 0.0 16.28999089631971 0.0 0.0 0.0 34.25627252547053" Properties=species:S:1:pos:R:3:initial_magmoms:R:1 pbc="T T T"
Si      -1.35742452      -1.35711990       1.35733704       0.00000000
Si       1.35803214       1.35796698       1.35709725       0.00000000
Si      -1.35635427       1.35834165      -1.35997478       0.00000000
Si       1.36018242      -1.35620766      -1.36199590       0.00000000
Si      -2.70523615       0.00506619      -2.70280428       0.00000000
Si      -2.71490121       0.00029322       2.71450281       0.00000000
Si       2.71508688       0.00081450       2.71443430       0.00000000
Si       0.00063531      -2.71445157       2.71522219       0.00000000
Si       0.00110772       2.71527683       2.71491388       0.00000000
Si       2.71544526      -2.71497285      -0.00013703       0.00000000
