10
Lattice="16.28999089631971 0.0 0.0 0.0 16.28999089631971 0.0 0.0 0.0 34.25627252547053" Properties=species:S:1:pos:R:3:initial_magmoms:R:1 pbc="T T T"
Si       1.35831233       1.35618584      -1.35600105       0.00000000
Si       1.35593399      -1.35536058       1.35939242       0.00000000
Si      -1.35769661      -1.35879777      -1.35641212       0.00000000
Si      -1.35855735       1.35540001       1.36072842       0.00000000
Si       0.02178462       2.71848727       2.70473977       0.00000000
Si      -2.71430889       2.71350253       0.00099343       0.00000000
Si      -0.00007493       2.71435613      -2.71409173       0.00000000
Si      -2.71522113      -0.00115659      -2.71347512       0.00000000
Si       2.71523675      -0.00112401      -2.71381768       0.00000000
Si      -0.00021991      -2.71621089      -2.71357789       0.00000000
