10
Lattice="16.28999089631971 0.0 0.0 0.0 16.28999089631971 0.0 0.0 0.0 34.25627252547053" Properties=species:S:1:pos:R:3:initial_magmoms:R:1 pbc="T T T"
Si       2.26460322      -0.71702064       0.19882352       0.00000000
Si      -0.75210930       0.45410004       2.24299921       0.00000000
Si      -0.19878687       2.03737401      -1.30314359       0.00000000
Si      -1.08857925      -1.88206515      -1.11000662       0.00000000
Si      -1.37608146       1.17758781      -3.15171586       0.00000000
Si      -2.66926311      -0.64677816      -2.40664151       0.00000000
Si       2.22483933      -2.62716975       1.67694825       0.00000000
Si       0.90132570       1.85997591       3.22707970       0.00000000
Si       2.04245649       2.55375072      -2.12680187       0.00000000
Si       3.65547600       1.12964634       0.97572196       0.00000000
