10
Lattice="10.86 0.0 0.0 0.0 10.86 0.0 0.0 0.0 10.86" Properties=species:S:1:pos:R:3:initial_magmoms:R:1 pbc="T T T"
Si      -1.30790238      -1.26542892       1.34129688       0.00000000
Si       1.40709762      -1.26542892      -1.37370312       0.00000000
Si      -0.72392760       1.72677258      -1.42737324       0.00000000
Si       1.40709762       1.44957108       1.34129688       0.00000000
Si      -2.66540238      -2.62292892      -0.01620312       0.00000000
Si       0.04959762      -2.62292892       2.69879688       0.00000000
Si       0.04959762      -2.62292892      -2.73120312       0.00000000
Si      -2.53991508       2.78316822      -0.42891570       0.00000000
Si      -2.66540238       0.09207108       2.69879688       0.00000000
Si       2.76459762      -2.62292892      -0.01620312       0.00000000
