10
Lattice="10.86 0.0 0.0 0.0 10.86 0.0 0.0 0.0 10.86" Properties=species:S:1:pos:R:3:initial_magmoms:R:1 pbc="T T T"
Si       0.98376396      -1.81541190      -1.10439684       0.00000000
Si       0.89192094       1.59933048       1.51839090       0.00000000
Si      -1.82307906      -1.11566952       1.51839090       0.00000000
Si      -1.82307906       1.59933048      -1.19660910       0.00000000
Si       2.18769270       0.04082274      -2.56796646       0.00000000
Si      -0.34009176      -2.49707238       2.46317832       0.00000000
Si      -0.51266802      -2.57843550      -2.58948012       0.00000000
Si       2.24942094       2.95683048       0.16089090       0.00000000
Si       2.24572854       0.37531074       3.09550182       0.00000000
Si      -0.46557906       2.95683048      -2.55410910       0.00000000
