10
Lattice="10.86 0.0 0.0 0.0 10.86 0.0 0.0 0.0 10.86" Properties=species:S:1:pos:R:3:initial_magmoms:R:1 pbc="T T T"
Si       1.43873280       1.26613482       1.40010378       0.00000000
Si      -1.27626720      -1.44886518       1.40010378       0.00000000
Si       1.43873280      -1.44886518      -1.31489622       0.00000000
Si       0.08123280       2.62363482       2.75760378       0.00000000
Si      -2.63376720      -0.09136518       2.75760378       0.00000000
Si      -2.63745960       2.75711508       0.26221470       0.00000000
Si       2.79623280       2.62363482       0.04260378       0.00000000
Si      -0.16891644       2.70916818      -2.72359026       0.00000000
Si      -3.40729242      -1.17166368      -1.36856634       0.00000000
Si       2.79623280      -0.09136518      -2.67239622       0.00000000
