10
Lattice="10.86 0.0 0.0 0.0 10.86 0.0 0.0 0.0 10.86" Properties=species:S:1:pos:R:3:initial_magmoms:R:1 pbc="T T T"
Si       1.24200390       1.24026630       1.29626046       0.00000000
Si      -1.47299610       1.24026630      -1.41873954       0.00000000
Si      -1.47299610      -1.47473370       1.29626046       0.00000000
Si       2.59950390       2.59776630      -0.06123954       0.00000000
Si      -0.11549610       2.59776630       2.65376046       0.00000000
Si       2.59950390      -0.11723370       2.65376046       0.00000000
Si      -0.11549610       2.59776630      -2.77623954       0.00000000
Si      -2.83049610       2.59776630      -0.06123954       0.00000000
Si      -2.69535426      -2.73499326       0.16614714       0.00000000
Si      -2.83049610      -0.11723370       2.65376046       0.00000000
