10
Lattice="10.86 0.0 0.0 0.0 10.86 0.0 0.0 0.0 10.86" Properties=species:S:1:pos:R:3:initial_magmoms:R:1 pbc="T T T"
Si       1.03752096       0.99152886       1.54547574       0.00000000
Si      -1.67747904       0.99152886      -1.16952426       0.00000000
Si       1.03752096      -1.72347114      -1.16952426       0.00000000
Si       2.39502096       2.34902886       0.18797574       0.00000000
Si      -0.31997904       2.34902886      -2.52702426       0.00000000
Si       2.39502096      -0.36597114      -2.52702426       0.00000000
Si      -0.31997904       2.34902886       2.90297574       0.00000000
Si      -2.89832766      -0.29463180      -2.40356778       0.00000000
Si       2.39502096      -0.36597114       2.90297574       0.00000000
Si      -3.03497904       2.34902886       0.18797574       0.00000000
