10
Lattice="10.86 0.0 0.0 0.0 10.86 0.0 0.0 0.0 10.86" Properties=species:S:1:pos:R:3:initial_magmoms:R:1 pbc="T T T"
Si       1.29091734      -1.10796978       1.28865846       0.00000000
Si      -1.36568844       1.48211850       1.37410494       0.00000000
Si      -1.45466442      -1.23020994      -1.73438544       0.00000000
Si      -0.02066658      -2.47248534       2.65833252       0.00000000
Si       2.69433342      -2.47248534      -0.05666748       0.00000000
Si      -2.73566658      -2.47248534      -0.05666748       0.00000000
Si      -0.02066658      -2.47248534      -2.77166748       0.00000000
Si       2.69433342       0.24251466       2.65833252       0.00000000
Si      -2.73566658       0.24251466       2.65833252       0.00000000
Si      -2.73566658       0.24251466      -2.77166748       0.00000000
