10
Lattice="10.86 0.0 0.0 0.0 10.86 0.0 0.0 0.0 10.86" Properties=species:S:1:pos:R:3:initial_magmoms:R:1 pbc="T T T"
Si       1.35750000       1.35750000       1.35750000       0.00000000
Si      -1.35750000      -1.35750000       1.35750000       0.00000000
Si      -1.35750000       1.35750000      -1.35750000       0.00000000
Si       1.35750000      -1.35750000      -1.35750000       0.00000000
Si      -2.55199140      -2.58746016      -0.04765368       0.00000000
Si       0.09388470      -2.53786254       2.65524828       0.00000000
Si      -0.03128766      -2.68604724      -2.63465772       0.00000000
Si      -2.79149784       2.59977540      -0.32021796       0.00000000
Si      -0.04591608       2.72201556       2.70282594       0.00000000
Si      -2.71500000       0.00000000       2.71500000       0.00000000
