10
Lattice="10.86 0.0 0.0 0.0 10.86 0.0 0.0 0.0 10.86" Properties=species:S:1:pos:R:3:initial_magmoms:R:1 pbc="T T T"
Si       1.54452006       1.10558058      -0.82685868       0.00000000
Si      -1.20769716      -1.62272292      -1.15657914       0.00000000
Si      -0.97618368       1.20416766       1.76014536       0.00000000
Si       0.21830772       2.43412782      -2.26470096       0.00000000
Si      -2.49669228      -0.28087218      -2.26470096       0.00000000
Si      -2.49669228       2.43412782       0.45029904       0.00000000
Si       2.93330772      -0.28087218      -2.26470096       0.00000000
Si       0.21830772      -2.99587218      -2.26470096       0.00000000
Si       2.93330772       2.43412782       0.45029904       0.00000000
Si      -2.49669228      -2.99587218       0.45029904       0.00000000
