10
Lattice="16.28999089631971 0.0 0.0 0.0 16.28999089631971 0.0 0.0 0.0 34.433804113860816" Properties=species:S:1:pos:R:3:initial_magmoms:R:1 pbc="T T T"
Si      -1.34115005      -1.35284471      -1.36382044       0.00000000
Si       1.37357769       1.36117448      -1.35810443       0.00000000
Si       1.29981657      -1.37962521       1.41206223       0.00000000
Si      -1.26758143       1.48543460       1.39212504       0.00000000
Si       2.33579541       0.32395760       2.70942539       0.00000000
Si       0.61737960       2.20418198       2.80735518       0.00000000
Si      -2.70290426      -2.70686925       0.02882111       0.00000000
Si       2.72703234      -2.69312049      -0.00399432       0.00000000
Si      -2.69961368       0.00165344      -2.72261355       0.00000000
Si      -2.69269043       2.73363956      -0.01301599       0.00000000
