10
Lattice="16.28999089631971 0.0 0.0 0.0 16.28999089631971 0.0 0.0 0.0 34.433804113860816" Properties=species:S:1:pos:R:3:initial_magmoms:R:1 pbc="T T T"
Si      -2.18010699       0.54731142      -0.73123667       0.00000000
Si       0.45328554       2.23378484       0.76274362       0.00000000
Si       1.22528493      -0.08824293      -2.10400991       0.00000000
Si       0.34495704      -1.99905993       1.43385884       0.00000000
Si      -0.85563225      -0.49399425       3.05961737       0.00000000
Si       2.92457628       1.47707199      -1.79100645       0.00000000
Si       2.00622753       1.94611647       2.48264423       0.00000000
Si      -1.86732759       1.56596814      -2.86492854       0.00000000
Si       1.61254710       3.30446627      -1.00223086       0.00000000
Si       2.92125312      -2.05991937       1.36306290       0.00000000
