10
Lattice="16.28999089631971 0.0 0.0 0.0 16.28999089631971 0.0 0.0 0.0 34.433804113860816" Properties=species:S:1:pos:R:3:initial_magmoms:R:1 pbc="T T T"
Si      -1.56734074      -1.08947520       1.44339154       0.00000000
Si      -0.63669304       1.31042691      -1.95835484       0.00000000
Si       1.19195787       1.57407568       1.55218520       0.00000000
Si       1.17649052      -2.02277817      -1.28513916       0.00000000
Si       1.49419764       2.30735537      -2.31092275       0.00000000
Si      -3.04486003      -2.20819095      -0.11397596       0.00000000
Si      -0.13016671      -2.36157759       3.02092550       0.00000000
Si       1.93530967      -0.83147418      -3.34283557       0.00000000
Si       2.59575514       0.32930235       3.02779850       0.00000000
Si       2.88884482      -2.80618056       0.30945677       0.00000000
