10
Lattice="16.28999089631971 0.0 0.0 0.0 16.28999089631971 0.0 0.0 0.0 34.433804113860816" Properties=species:S:1:pos:R:3:initial_magmoms:R:1 pbc="T T T"
Si       1.35596331      -1.34765541       1.36030819       0.00000000
Si      -1.32840063      -1.35832536      -1.37982873       0.00000000
Si      -1.35780408       1.36858806       1.35707141       0.00000000
Si       1.37140623       1.35870003      -1.38030047       0.00000000
Si      -2.61710253       0.04307076      -2.72167006       0.00000000
Si      -0.10521711       2.65352697      -2.69718417       0.00000000
Si       2.70801702      -2.70489586       0.00299574       0.00000000
Si      -0.00192222      -2.70602964       2.71517584       0.00000000
Si      -2.71438641      -2.71003372      -0.00327121       0.00000000
Si       2.71321353       0.00832419       2.71620885       0.00000000
