10
Lattice="16.28999089631971 0.0 0.0 0.0 16.28999089631971 0.0 0.0 0.0 34.433804113860816" Properties=species:S:1:pos:R:3:initial_magmoms:R:1 pbc="T T T"
Si       1.35521397      -1.35524795       1.36220205       0.00000000
Si      -1.36085031       1.36172671       1.36171998       0.00000000
Si      -1.37384973      -1.36509615      -1.36301125       0.00000000
Si       1.38598578       1.35170836      -1.37655751       0.00000000
Si       2.70847314      -2.70574686       0.00685233       0.00000000
Si      -2.71631840      -2.70768537       0.00440753       0.00000000
Si       2.71438641       2.71003372       0.00327121       0.00000000
Si      -0.00332316      -2.71084563       2.71937677       0.00000000
Si       2.71246419       0.00400408       2.71844705       0.00000000
Si      -2.71727300       2.71786921      -0.00220376       0.00000000
