10
Lattice="16.28999089631971 0.0 0.0 0.0 16.28999089631971 0.0 0.0 0.0 34.433804113860816" Properties=species:S:1:pos:R:3:initial_magmoms:R:1 pbc="T T T"
Si      -1.72820514       1.33240797       0.81945613       0.00000000
Si      -1.38906363      -1.90973276       0.05647147       0.00000000
Si       1.40078524      -0.84306356       1.72468691       0.00000000
Si       0.45886812      -2.03260823      -1.43750882       0.00000000
Si      -0.44517149      -2.36767724       2.10235709       0.00000000
Si      -2.57083797       1.56323727      -1.41250987       0.00000000
Si       1.79648563      -0.54855665      -2.75050494       0.00000000
Si       2.83246447       1.15502616      -1.45314178       0.00000000
Si       3.38349001      -0.62531513       0.25036833       0.00000000
Si       1.11404866       3.03525054      -1.35521199       0.00000000
