10
Lattice="16.28999089631971 0.0 0.0 0.0 16.28999089631971 0.0 0.0 0.0 34.433804113860816" Properties=species:S:1:pos:R:3:initial_magmoms:R:1 pbc="T T T"
Si       0.87840567       2.16699354      -0.78516004       0.00000000
Si      -1.02610710       0.91289160       2.05380539       0.00000000
Si       1.42151427      -1.94370651       0.60214427       0.00000000
Si      -1.25099055      -0.81158409      -2.02804889       0.00000000
Si       2.66800878       2.50207884       0.77434782       0.00000000
Si      -0.82707588       3.24721602       1.92209602       0.00000000
Si      -0.88513344       3.78773451      -0.34977878       0.00000000
Si      -1.74786813      -3.22252527      -1.54659518       0.00000000
Si       3.67991100      -1.28256057       0.94407213       0.00000000
Si       1.84761180      -3.35215457      -1.27725381       0.00000000
