10
Lattice="16.28999089631971 0.0 0.0 0.0 16.28999089631971 0.0 0.0 0.0 34.433804113860816" Properties=species:S:1:pos:R:3:initial_magmoms:R:1 pbc="T T T"
Si      -1.69929135      -1.56531492      -0.31300345       0.00000000
Si       0.71244315       0.96640262      -2.00318767       0.00000000
Si       1.63504359      -0.24342310       1.67293287       0.00000000
Si      -1.31202918       1.82739428       0.78877559       0.00000000
Si      -2.84710104      -0.65045791      -2.15917289       0.00000000
Si      -2.47129074       0.75671285       2.55375008       0.00000000
Si      -1.30996035       0.80765168      -3.29662538       0.00000000
Si       2.31560721       1.95271325       2.04760731       0.00000000
Si       0.33646995       3.27754637       1.72131240       0.00000000
Si      -2.92457628      -1.47707199       1.79100645       0.00000000
