10
Lattice="16.28999089631971 0.0 0.0 0.0 16.28999089631971 0.0 0.0 0.0 34.433804113860816" Properties=species:S:1:pos:R:3:initial_magmoms:R:1 pbc="T T T"
Si      -1.35812988      -1.35290079      -1.38589252       0.00000000
Si       1.36129014       1.36506942      -1.38620243       0.00000000
Si      -1.36202319       1.42702029       1.41481693       0.00000000
Si       1.33159347      -1.40064678       1.47896715       0.00000000
Si      -2.69646741      -2.69594613       0.00130849       0.00000000
Si       2.71311579      -2.68915320      -0.01738908       0.00000000
Si       2.71679733       2.70210375      -0.03185129       0.00000000
Si      -2.70236439       2.72518668      -0.02668621       0.00000000
Si       0.00102627      -2.70749574      -2.74547760       0.00000000
Si      -2.71256193       0.00658116      -2.74547760       0.00000000
