10
Lattice="16.28999089631971 0.0 0.0 0.0 16.28999089631971 0.0 0.0 0.0 34.433804113860816" Properties=species:S:1:pos:R:3:initial_magmoms:R:1 pbc="T T T"
Si       1.35684297       1.35674523      -1.35824216       0.00000000
Si       1.35799956      -1.35702216       1.35796669       0.00000000
Si      -1.35935163      -1.35786924      -1.35772565       0.00000000
Si      -1.36319607       1.35607734       1.35827660       0.00000000
Si      -2.70565497       0.00309510       2.71748291       0.00000000
Si       2.71350675      -0.01998783       2.71231783       0.00000000
Si       2.71277370       2.71621089      -0.00382215       0.00000000
Si       2.71379997      -0.00122175      -2.71548574       0.00000000
Si       2.71345788      -2.71608057      -0.00172169       0.00000000
Si      -0.00197109       2.71415835      -2.71558905       0.00000000
