10
Lattice="16.28999089631971 0.0 0.0 0.0 16.28999089631971 0.0 0.0 0.0 34.433804113860816" Properties=species:S:1:pos:R:3:initial_magmoms:R:1 pbc="T T T"
Si      -1.34245890      -1.35298224       1.35920631       0.00000000
Si      -1.35252612       1.35814617      -1.35817329       0.00000000
Si       1.36319607      -1.35607734      -1.35827660       0.00000000
Si       1.37743353       1.37779191       1.36895108       0.00000000
Si      -2.57971698       0.05787837       2.78455999       0.00000000
Si      -2.70847314       2.71018359      -0.00020660       0.00000000
Si      -2.71103067      -2.71254564       0.00092971       0.00000000
Si      -2.71063971       0.00040725      -2.71644989       0.00000000
Si       0.00384444      -2.71394658      -2.71600225       0.00000000
Si       2.72647359       2.70506853      -0.00430423       0.00000000
