10
Lattice="16.28999089631971 0.0 0.0 0.0 16.28999089631971 0.0 0.0 0.0 34.433804113860816" Properties=species:S:1:pos:R:3:initial_magmoms:R:1 pbc="T T T"
Si      -1.34034120       1.29816639      -1.44150315       0.00000000
Si      -1.90689111      -0.67919526       1.23527898       0.00000000
Si       1.36202319      -1.42702029      -1.41481693       0.00000000
Si       0.97792128       1.83200598       1.36302846       0.00000000
Si      -0.65203983       0.39641715       3.11147471       0.00000000
Si      -2.57759928       2.70902700      -0.01614946       0.00000000
Si      -2.65323375      -2.71399545       0.07355065       0.00000000
Si       2.75100633       2.64064158      -0.06394361       0.00000000
Si       0.00211770       2.65114863      -2.80070946       0.00000000
Si      -2.70891297      -0.06139701      -2.79977974       0.00000000
