10
Lattice="16.28999089631971 0.0 0.0 0.0 16.28999089631971 0.0 0.0 0.0 34.433804113860816" Properties=species:S:1:pos:R:3:initial_magmoms:R:1 pbc="T T T"
Si       1.77308505       0.80863560      -1.42697207       0.00000000
Si      -0.97792128      -1.83200598      -1.36302846       0.00000000
Si       1.43239599       0.24648399       2.05952141       0.00000000
Si      -1.80924885       1.73630223       0.25784047       0.00000000
Si      -1.62996111      -1.43558883       1.74844625       0.00000000
Si      -1.77445341       0.95055408       2.50695451       0.00000000
Si       0.40162995       2.19693456      -2.79478684       0.00000000
Si       2.86117560      -1.53319851       1.53478437       0.00000000
Si      -2.31826248      -0.53383959      -2.80453161       0.00000000
Si      -2.88481239      -2.51120124      -0.12774948       0.00000000
