10
Lattice="16.28999089631971 0.0 0.0 0.0 16.28999089631971 0.0 0.0 0.0 34.433804113860816" Properties=species:S:1:pos:R:3:initial_magmoms:R:1 pbc="T T T"
Si      -2.24171577      -0.17423784       0.57955568       0.00000000
Si      -0.03479544       0.78574815      -2.24911404       0.00000000
Si       1.37448504       0.68481531       1.87808959       0.00000000
Si       0.14449230      -2.38614291      -0.75850826       0.00000000
Si       1.77445341      -0.95055408      -2.50695451       0.00000000
Si       3.20684940      -0.70407009      -0.44743310       0.00000000
Si      -2.11123287      -2.16235089       1.85119678       0.00000000
Si       2.76574878      -1.25450919       1.85725713       0.00000000
Si       0.68667237       3.05818686      -1.91121493       0.00000000
Si      -0.19249893       1.27764099       3.53056878       0.00000000
