10
Lattice="16.28999089631971 0.0 0.0 0.0 16.28999089631971 0.0 0.0 0.0 34.433804113860816" Properties=species:S:1:pos:R:3:initial_magmoms:R:1 pbc="T T T"
Si      -0.79601085      -1.63328427       1.58684629       0.00000000
Si      -0.25379820      -1.98772209      -1.39122977       0.00000000
Si       1.90241136       1.02853431       1.41129577       0.00000000
Si      -2.03282910       1.16414856      -1.26957507       0.00000000
Si      -2.06482266      -0.19624563       2.92289930       0.00000000
Si      -1.93018581      -3.06186840       0.01680371       0.00000000
Si       0.66578859       2.49761538       2.90471479       0.00000000
Si      -3.41472609       1.26001521       1.57846165       0.00000000
Si      -2.60006319       3.00532581       0.21159671       0.00000000
Si       2.27532204       0.70310898      -3.41390698       0.00000000
