10
Lattice="16.28999089631971 0.0 0.0 0.0 16.28999089631971 0.0 0.0 0.0 34.433804113860816" Properties=species:S:1:pos:R:3:initial_magmoms:R:1 pbc="T T T"
Si      -1.35594702       1.35203742       1.35796669       0.00000000
Si       1.35252612      -1.35814617       1.35817329       0.00000000
Si       1.35677781       1.35723393      -1.35834546       0.00000000
Si      -1.35811359      -1.35773892      -1.35827660       0.00000000
Si      -2.69869588      -0.00584811       2.72760645       0.00000000
Si       2.71311579       2.71502172       0.00182499       0.00000000
Si       0.01006722      -2.71112841       2.71737960       0.00000000
Si       2.71375110      -0.00006516      -2.71569235       0.00000000
Si       2.71572219      -2.71422351      -0.00010330       0.00000000
Si      -0.00100998      -2.71482624      -2.71555461       0.00000000
