10
Lattice="16.28999089631971 0.0 0.0 0.0 16.28999089631971 0.0 0.0 0.0 34.433804113860816" Properties=species:S:1:pos:R:3:initial_magmoms:R:1 pbc="T T T"
Si      -1.75124016       1.54755230       0.16679744       0.00000000
Si       0.22116933      -1.00978452      -2.11771457       0.00000000
Si       1.84423977       1.41792300       0.43613881       0.00000000
Si       0.27851013      -1.92572235       1.36784920       0.00000000
Si       2.51061480      -2.19449106       0.49639800       0.00000000
Si       1.56659301      -2.86300008      -1.54638857       0.00000000
Si      -2.05299612      -1.24374150      -2.73542293       0.00000000
Si      -3.13890381       0.89427213      -1.71855769       0.00000000
Si       3.55641651      -0.11412774       1.05095472       0.00000000
Si      -2.89742085       1.32012598       2.23127732       0.00000000
