10
Lattice="16.28999089631971 0.0 0.0 0.0 16.28999089631971 0.0 0.0 0.0 34.433804113860816" Properties=species:S:1:pos:R:3:initial_magmoms:R:1 pbc="T T T"
Si       1.08976842       0.14915124       2.07897652       0.00000000
Si       1.56698397      -0.59282568      -1.65247918       0.00000000
Si      -1.25968941      -2.00204100       0.07640865       0.00000000
Si      -0.96383043       2.15490636      -0.71839286       0.00000000
Si      -3.19004464      -0.79684164       0.41923180       0.00000000
Si       3.08345265       0.95490351       1.05040378       0.00000000
Si       3.21067755       1.09856502      -1.33851158       0.00000000
Si       0.19249893      -1.27764099      -3.53056878       0.00000000
Si      -3.34987560       0.07825716      -1.74823965       0.00000000
Si      -2.42015643       2.79699300       1.01042611       0.00000000
