10
Lattice="16.28999089631971 0.0 0.0 0.0 16.28999089631971 0.0 0.0 0.0 34.433804113860816" Properties=species:S:1:pos:R:3:initial_magmoms:R:1 pbc="T T T"
Si      -1.57051890       1.64046720       0.63964270       0.00000000
Si       0.98287344       0.92799962      -1.96107511       0.00000000
Si      -0.65549331      -2.36556864      -0.47993863       0.00000000
Si       1.17983583       0.35321607       2.24794329       0.00000000
Si       2.80945485      -0.44527086      -2.30827135       0.00000000
Si      -2.97694863       0.75327308       2.27369979       0.00000000
Si      -3.12346089       1.92813557      -1.08025791       0.00000000
Si      -0.65217015       1.17142272      -3.63400798       0.00000000
Si       1.66343706       3.12413597      -1.58640068       0.00000000
Si       3.22875945      -1.07222409       1.98211417       0.00000000
