10
Lattice="16.28999089631971 0.0 0.0 0.0 16.28999089631971 0.0 0.0 0.0 34.433804113860816" Properties=species:S:1:pos:R:3:initial_magmoms:R:1 pbc="T T T"
Si       1.35404109      -1.35953897      -1.36072140       0.00000000
Si      -1.36179513       1.35767376      -1.36268413       0.00000000
Si       1.35029439       1.37601630       1.36540440       0.00000000
Si      -1.36910934      -1.37299288       1.35593510       0.00000000
Si       2.63156805      -0.09694179       2.66304303       0.00000000
Si       2.70783783       2.71498914      -0.00550941       0.00000000
Si       2.71409319      -2.71480085      -0.00375329       0.00000000
Si       2.71147050      -0.00104256      -2.71982441       0.00000000
Si      -2.72095128       2.71226871      -0.00309904       0.00000000
Si      -2.72622924      -2.70698165      -0.01019241       0.00000000
