10
Lattice="16.28999089631971 0.0 0.0 0.0 16.28999089631971 0.0 0.0 0.0 34.433804113860816" Properties=species:S:1:pos:R:3:initial_magmoms:R:1 pbc="T T T"
Si       1.44135549      -1.28304438      -1.30183956       0.00000000
Si      -1.28127366       1.47295809      -1.29763863       0.00000000
Si       1.83008376       0.85300956       1.34543278       0.00000000
Si      -1.77318279      -1.01898837       1.33479273       0.00000000
Si      -0.47788344      -1.20060884       3.32465451       0.00000000
Si       0.77336775       0.78504768       3.47957228       0.00000000
Si       0.08252514      -2.61785906      -2.66679632       0.00000000
Si      -2.63156805       0.09694179      -2.66304303       0.00000000
Si       2.66527206       2.66492997       0.04862056       0.00000000
Si       2.83563288      -2.47893727       0.28683375       0.00000000
