10
Lattice="16.28999089631971 0.0 0.0 0.0 16.28999089631971 0.0 0.0 0.0 34.433804113860816" Properties=species:S:1:pos:R:3:initial_magmoms:R:1 pbc="T T T"
Si      -1.84423977      -1.41792300      -0.43613881       0.00000000
Si       1.71217674      -1.53205074       0.61481592       0.00000000
Si      -0.42609753       1.40844806       1.87939808       0.00000000
Si       1.09115307       0.99783906      -1.94024264       0.00000000
Si       2.77607664      -0.67068441      -1.42235794       0.00000000
Si       1.83229920       2.06959400       2.22132594       0.00000000
Si      -3.59547993       0.12962930      -0.26934137       0.00000000
Si       0.66637503      -3.61241406       0.06025919       0.00000000
Si      -1.56572964      -3.34364535       0.93171039       0.00000000
Si      -1.62307044      -2.42770752      -2.55385338       0.00000000
