10
Lattice="16.28999089631971 0.0 0.0 0.0 16.28999089631971 0.0 0.0 0.0 34.433804113860816" Properties=species:S:1:pos:R:3:initial_magmoms:R:1 pbc="T T T"
Si      -0.88176141      -1.76966252      -1.33041963       0.00000000
Si      -0.74976354      -0.68925433       2.15459320       0.00000000
Si      -1.75790277       1.55600451      -0.55183645       0.00000000
Si       2.34768222       0.62064900       0.03873805       0.00000000
Si      -1.62509040      -0.65505511      -3.27252170       0.00000000
Si      -1.36666584      -3.01196303       1.95553126       0.00000000
Si      -2.63878452       0.68905071       2.71465933       0.00000000
Si      -2.59468749      -2.85258167      -0.09858404       0.00000000
Si      -3.74070528       0.71682516       0.62328664       0.00000000
Si       2.68367976       2.49028488       1.42101502       0.00000000
