10
Lattice="16.28999089631971 0.0 0.0 0.0 16.28999089631971 0.0 0.0 0.0 34.433804113860816" Properties=species:S:1:pos:R:3:initial_magmoms:R:1 pbc="T T T"
Si      -0.82362240       0.06237441      -2.24084992       0.00000000
Si       0.62929899       1.96939584       1.21908617       0.00000000
Si      -2.02103514      -0.73627379       1.15661288       0.00000000
Si       1.50267105      -1.94779041       0.15306045       0.00000000
Si       1.76948496       0.53084223       2.75733459       0.00000000
Si      -2.43675594       1.66144968      -1.68064605       0.00000000
Si       3.11469687      -0.76481224       1.38731261       0.00000000
Si      -2.43991620      -2.60689589      -0.42673837       0.00000000
Si      -0.94701915      -2.19588744       2.73769698       0.00000000
Si      -1.42602660      -2.22867467      -2.60584845       0.00000000
