10
Lattice="16.28999089631971 0.0 0.0 0.0 16.28999089631971 0.0 0.0 0.0 34.433804113860816" Properties=species:S:1:pos:R:3:initial_magmoms:R:1 pbc="T T T"
Si       1.32494715       1.36414089      -1.33317434       0.00000000
Si      -0.34409367       1.68319683       1.65506172       0.00000000
Si      -1.48957389      -1.44327771      -1.17860091       0.00000000
Si       1.54694727      -1.14808662       1.49477227       0.00000000
Si       0.38318967       0.06548580       3.19304844       0.00000000
Si       2.61475677      -0.04241916      -2.68993585       0.00000000
Si      -0.10437003       2.65947282      -2.68941934       0.00000000
Si      -0.10805157      -2.73178413      -2.67495713       0.00000000
Si      -2.82116736      -0.04263093      -2.65756805       0.00000000
Si       2.20907061       3.21359346      -0.05747005       0.00000000
