10
Lattice="16.28999089631971 0.0 0.0 0.0 16.28999089631971 0.0 0.0 0.0 34.433804113860816" Properties=species:S:1:pos:R:3:initial_magmoms:R:1 pbc="T T T"
Si      -1.74821022      -0.94952781       1.18662399       0.00000000
Si      -0.72728334       1.61771103      -1.53798672       0.00000000
Si       1.16375760      -1.21357242      -1.69827617       0.00000000
Si       0.04139289      -0.61444251       2.74613185       0.00000000
Si       1.28497149       2.75573043      -0.75837053       0.00000000
Si      -0.38318967      -0.06548580      -3.19304844       0.00000000
Si       2.21317569       0.46020879       2.53357185       0.00000000
Si       3.26938671      -0.26889903      -1.25380438       0.00000000
Si      -3.51174933       0.67121316       1.62200525       0.00000000
Si       1.56340017      -3.48518034      -1.09079466       0.00000000
