10
Lattice="16.28999089631971 0.0 0.0 0.0 16.28999089631971 0.0 0.0 0.0 34.433804113860816" Properties=species:S:1:pos:R:3:initial_magmoms:R:1 pbc="T T T"
Si      -1.80514377      -0.61238997      -1.43165507       0.00000000
Si       2.07467811      -1.11351924      -0.52742287       0.00000000
Si       0.53325315       2.18478222      -1.00584641       0.00000000
Si       0.20126295      -0.48342204       2.79451137       0.00000000
Si       2.35473579       2.35103796       0.74142908       0.00000000
Si       3.39561792       0.11026701       1.08986494       0.00000000
Si      -1.49488443       3.37284450      -0.51158331       0.00000000
Si       0.71265492       1.57201758      -3.33725729       0.00000000
Si      -2.01194532      -2.95697709      -1.26220623       0.00000000
Si      -1.15808868       0.09514989      -3.62195614       0.00000000
