10
Lattice="16.28999089631971 0.0 0.0 0.0 16.28999089631971 0.0 0.0 0.0 34.433804113860816" Properties=species:S:1:pos:R:3:initial_magmoms:R:1 pbc="T T T"
Si      -1.42877961       1.77968250       0.52473703       0.00000000
Si       0.72728334      -1.61771103       1.53798672       0.00000000
Si       0.34409367      -1.68319683      -1.65506172       0.00000000
Si       2.01225483       1.13801940       0.77961619       0.00000000
Si       1.89104094      -2.83128345      -0.16028945       0.00000000
Si       2.55316428       1.53039663      -1.71253177       0.00000000
Si       1.66904082      -0.31905594      -2.98823606       0.00000000
Si      -2.86117560       1.53319851      -1.53478437       0.00000000
Si      -1.86988023       1.22924340       2.82942727       0.00000000
Si       0.74525121       3.27971457      -1.71501101       0.00000000
