10
Lattice="16.28999089631971 0.0 0.0 0.0 16.28999089631971 0.0 0.0 0.0 34.433804113860816" Properties=species:S:1:pos:R:3:initial_magmoms:R:1 pbc="T T T"
Si      -0.15669351      -1.74571785       1.52590045       0.00000000
Si       0.50725431      -0.33598125      -2.25713712       0.00000000
Si       2.11322025       0.76277925       0.71742871       0.00000000
Si      -1.64519226       1.69779267      -0.14035226       0.00000000
Si       0.86302791       1.97069904      -2.65718928       0.00000000
Si       1.84757922      -2.79481014       0.89335111       0.00000000
Si       2.23109469       2.57391774      -0.81256936       0.00000000
Si      -0.68093829       3.35482776       1.24405960       0.00000000
Si      -1.50346926      -0.98218926      -3.26635805       0.00000000
Si      -1.39791006       2.59804323      -2.43188877       0.00000000
