10
Lattice="16.28999089631971 0.0 0.0 0.0 16.28999089631971 0.0 0.0 0.0 34.433804113860816" Properties=species:S:1:pos:R:3:initial_magmoms:R:1 pbc="T T T"
Si       1.35898200      -1.35334604      -1.35803556       0.00000000
Si      -1.35781274      -1.35639227       1.35710585       0.00000000
Si       1.35771464       1.35787426       1.35669264       0.00000000
Si      -1.35685163       1.35897221      -1.36085913       0.00000000
Si       2.70145067      -0.01075682      -2.72545434       0.00000000
Si      -2.71382492      -2.71491311      -0.00096415       0.00000000
Si       0.00001137      -2.71452215       2.71448716       0.00000000
Si       2.71526459       0.00169649       2.71414282       0.00000000
Si      -2.71543763       0.00094162       2.71465933       0.00000000
Si       2.71348898      -2.71672130       0.00096415       0.00000000
