10
Lattice="16.28999089631971 0.0 0.0 0.0 16.28999089631971 0.0 0.0 0.0 34.433804113860816" Properties=species:S:1:pos:R:3:initial_magmoms:R:1 pbc="T T T"
Si       0.92917997       1.94105124      -0.98401262       0.00000000
Si      -1.32218667       1.37997477       1.45324508       0.00000000
Si       1.40988158      -1.32289461       1.45242900       0.00000000
Si      -1.31944995      -1.40719536      -1.51515163       0.00000000
Si      -2.64125313      -2.68232769      -0.05405766       0.00000000
Si      -2.65606074       2.81095353      -0.01475834       0.00000000
Si      -2.66431977       0.03065778       2.83206490       0.00000000
Si       0.05332857      -2.68576488       2.82569464       0.00000000
Si       2.86788545      -2.65052961       0.10949956       0.00000000
Si       0.05590728       2.74662432       2.82982670       0.00000000
