10
Lattice="16.28999089631971 0.0 0.0 0.0 16.28999089631971 0.0 0.0 0.0 34.433804113860816" Properties=species:S:1:pos:R:3:initial_magmoms:R:1 pbc="T T T"
Si       1.72529019      -1.58780259      -0.39839934       0.00000000
Si      -1.22802165       0.15938136      -2.05411530       0.00000000
Si       0.61690230       2.32270869       0.19906193       0.00000000
Si      -0.80871705      -0.46757187       2.23627022       0.00000000
Si       2.17168506       1.76049192       1.88914285       0.00000000
Si       0.48490443       1.24230051      -3.28595090       0.00000000
Si       1.26293112       0.13142772       3.43997339       0.00000000
Si      -3.05460306       1.53265184      -1.70691906       0.00000000
Si       1.36666584       3.01196303      -1.95553126       0.00000000
Si       1.56613689      -2.43266715      -2.58074619       0.00000000
