10
Lattice="16.28999089631971 0.0 0.0 0.0 16.28999089631971 0.0 0.0 0.0 34.433804113860816" Properties=species:S:1:pos:R:3:initial_magmoms:R:1 pbc="T T T"
Si      -1.35705311       1.35734796      -1.35762235       0.00000000
Si       1.35830907       1.35770634       1.35648604       0.00000000
Si       1.35803214      -1.35785295      -1.35762235       0.00000000
Si      -1.35997228      -1.35746199       1.35720915       0.00000000
Si      -2.71314208      -0.00027693       2.71032067       0.00000000
Si       2.71274112      -0.00177561       2.71607112       0.00000000
Si      -0.00001629       2.71489140      -2.71438386       0.00000000
Si      -2.71440571       2.71507059      -0.00092971       0.00000000
Si      -2.71464432      -2.71516833      -0.00006887       0.00000000
Si       2.71448415      -2.71546155      -0.00086085       0.00000000
