10
Lattice="16.28999089631971 0.0 0.0 0.0 16.28999089631971 0.0 0.0 0.0 34.433804113860816" Properties=species:S:1:pos:R:3:initial_magmoms:R:1 pbc="T T T"
Si       1.72820514      -1.33240797      -0.81945613       0.00000000
Si      -1.60624287      -1.06859794       1.34043988       0.00000000
Si       0.69875955       1.67962932       1.54366830       0.00000000
Si      -0.84263283       0.23082930      -2.23196600       0.00000000
Si       0.33914151      -3.24214073      -0.76298466       0.00000000
Si      -2.89338093       0.84338217       1.97147412       0.00000000
Si      -0.28981539      -2.59852283       2.65708598       0.00000000
Si      -1.27179288       2.40626106       2.56680049       0.00000000
Si       1.67836263       0.43815213       3.37826798       0.00000000
Si       0.95729278       0.98409519      -3.58989825       0.00000000
