10
Lattice="16.28999089631971 0.0 0.0 0.0 16.28999089631971 0.0 0.0 0.0 34.433804113860816" Properties=species:S:1:pos:R:3:initial_magmoms:R:1 pbc="T T T"
Si       1.60624287       1.06859794      -1.34043988       0.00000000
Si      -1.28713806       1.91198011       0.63103425       0.00000000
Si      -1.81283265      -1.03615870      -1.17718912       0.00000000
Si       1.31642748      -1.52992489       1.31664610       0.00000000
Si      -2.87673255      -1.89752503       0.85998474       0.00000000
Si       2.30500242       2.74822726       0.20322843       0.00000000
Si       1.94538438      -2.17354279      -2.10342453       0.00000000
Si       0.33444999       3.47485900       1.22636062       0.00000000
Si      -2.24650503       2.61802129      -1.54015605       0.00000000
Si       0.76361004       1.29942724      -3.57240587       0.00000000
