10
Lattice="16.28999089631971 0.0 0.0 0.0 16.28999089631971 0.0 0.0 0.0 34.433804113860816" Properties=species:S:1:pos:R:3:initial_magmoms:R:1 pbc="T T T"
Si      -0.79268769      -0.92331720       2.02911634       0.00000000
Si       0.04178385       2.37254076       0.23273821       0.00000000
Si      -0.99590544      -1.08802539      -1.92974033       0.00000000
Si       2.27577069      -0.38450916      -0.77445112       0.00000000
Si      -0.37111878       0.77695155      -3.31074325       0.00000000
Si       0.37675512      -3.04520210      -1.79920170       0.00000000
Si      -0.45669015       0.94631868       3.41139331       0.00000000
Si       2.30140463      -2.69095813      -0.50786446       0.00000000
Si       1.95448302       0.31131819      -3.06085699       0.00000000
Si      -1.77404616       3.22968798      -0.93828725       0.00000000
