10
Lattice="16.28999089631971 0.0 0.0 0.0 16.28999089631971 0.0 0.0 0.0 34.433804113860816" Properties=species:S:1:pos:R:3:initial_magmoms:R:1 pbc="T T T"
Si       1.35677500      -1.35689184       1.35373133       0.00000000
Si       1.35551137       1.35845568      -1.35751905       0.00000000
Si      -1.35972630      -1.35684297      -1.35724358       0.00000000
Si      -1.35799956       1.35791811       1.35982612       0.00000000
Si       0.00348606      -2.69967654       2.70987303       0.00000000
Si       2.70994480      -2.71407690       0.00061981       0.00000000
Si      -2.71327869      -0.00527796       2.71300651       0.00000000
Si       2.71286397       0.00073305      -2.71421169       0.00000000
Si       2.71252676       2.71557558       0.00000000       0.00000000
Si      -0.00236205      -2.71437012      -2.71434943       0.00000000
