10
Lattice="16.28999089631971 0.0 0.0 0.0 16.28999089631971 0.0 0.0 0.0 34.433804113860816" Properties=species:S:1:pos:R:3:initial_magmoms:R:1 pbc="T T T"
Si       1.32300864       1.32467022       1.40589857       0.00000000
Si       1.49302737      -1.19700549      -1.36437138       0.00000000
Si      -1.22373738       1.49739309      -1.36123790       0.00000000
Si      -0.83518830      -1.81192041       1.29681222       0.00000000
Si      -0.18591777       1.33639902       3.26794201       0.00000000
Si      -2.29154688       0.39172563       2.82347021       0.00000000
Si       1.11821076      -3.19847634       1.39870190       0.00000000
Si       0.13271463      -2.57118102      -2.71255887       0.00000000
Si      -2.58900228       0.14700096      -2.71717300       0.00000000
Si      -2.66527206      -2.66492997      -0.04862056       0.00000000
