10
Lattice="16.28999089631971 0.0 0.0 0.0 16.28999089631971 0.0 0.0 0.0 34.433804113860816" Properties=species:S:1:pos:R:3:initial_magmoms:R:1 pbc="T T T"
Si       0.51267888       0.09435168       2.26719180       0.00000000
Si      -1.62158805      -1.56287889      -0.59532637       0.00000000
Si       1.97055243      -0.72663174      -1.02313219       0.00000000
Si      -0.29939391       2.22870006      -0.64862993       0.00000000
Si      -0.20434176       2.39666625       2.45106841       0.00000000
Si       2.95015551      -1.96810893       0.81146748       0.00000000
Si      -0.33444999      -3.47485900      -1.22636062       0.00000000
Si       1.27179288      -2.40626106      -2.56680049       0.00000000
Si      -1.93117950       3.08855142       0.85784984       0.00000000
Si       3.19489810       1.24574517      -1.52559054       0.00000000
