10
Lattice="16.28999089631971 0.0 0.0 0.0 16.28999089631971 0.0 0.0 0.0 34.433804113860816" Properties=species:S:1:pos:R:3:initial_magmoms:R:1 pbc="T T T"
Si      -1.81583001       0.85714722      -1.17102546       0.00000000
Si      -0.87529428       0.60033537       2.12429143       0.00000000
Si      -0.04178385      -2.37254076      -0.23273821       0.00000000
Si       2.09943795       0.91676862      -0.77038793       0.00000000
Si      -0.49847400      -1.42622208       3.17865510       0.00000000
Si      -1.12992327       0.70672536      -3.35960484       0.00000000
Si       1.99145154       3.05815428       0.16917337       0.00000000
Si       2.23398684      -2.75704992      -1.00718933       0.00000000
Si      -0.83447154      -3.29585796       1.79637813       0.00000000
Si      -0.41290263      -1.59558921      -3.54348146       0.00000000
