10
Lattice="16.28999089631971 0.0 0.0 0.0 16.28999089631971 0.0 0.0 0.0 34.433804113860816" Properties=species:S:1:pos:R:3:initial_magmoms:R:1 pbc="T T T"
Si      -1.35269250      -1.33275006      -1.37291097       0.00000000
Si      -1.46829982       1.26951228       1.32367060       0.00000000
Si       1.36038442       1.38427533      -1.36623081       0.00000000
Si       1.41606364      -1.26832311       1.50709958       0.00000000
Si       0.27675733       2.34118251       2.50519838       0.00000000
Si       2.16240628       0.76647708       2.66882791       0.00000000
Si      -2.70598144      -2.67553476      -0.01676927       0.00000000
Si       2.73485317      -2.67729408       0.02004049       0.00000000
Si       0.00047730      -2.68993512      -2.72602249       0.00000000
Si      -2.70946750       0.02414178      -2.72664230       0.00000000
