10
Lattice="16.28999089631971 0.0 0.0 0.0 16.28999089631971 0.0 0.0 0.0 34.433804113860816" Properties=species:S:1:pos:R:3:initial_magmoms:R:1 pbc="T T T"
Si      -1.32180318      -1.27513233       1.46109397       0.00000000
Si      -1.62893484       0.44093772      -1.75016794       0.00000000
Si       1.31944995       1.40719536       1.51515163       0.00000000
Si       0.55463933       0.32426874      -2.90562932       0.00000000
Si      -3.22439373      -2.02750227       0.20195437       0.00000000
Si       3.05865017      -1.53207450      -1.76397590       0.00000000
Si       2.81055347       0.92572812      -2.49228570       0.00000000
Si       0.00749876      -2.64137463       2.95471271       0.00000000
Si      -2.68897401       0.09554085       2.95628977       0.00000000
Si       2.72933153       0.08430075       2.96758062       0.00000000
