10
Lattice="16.28999089631971 0.0 0.0 0.0 16.28999089631971 0.0 0.0 0.0 34.433804113860816" Properties=species:S:1:pos:R:3:initial_magmoms:R:1 pbc="T T T"
Si       1.35467204       1.35770634       1.35727802       0.00000000
Si      -1.35763480       1.35741312      -1.35769122       0.00000000
Si       1.35784371      -1.35804517      -1.35803556       0.00000000
Si      -1.35870994      -1.35987943       1.35693368       0.00000000
Si       0.00150224       2.71489140       2.71038954       0.00000000
Si       2.71539366      -2.71422294      -0.00058537       0.00000000
Si       2.71464432       2.71516833       0.00006887       0.00000000
Si      -2.71499905       2.71494027      -0.00058537       0.00000000
Si       2.71457916       0.00014661      -2.71545131       0.00000000
Si      -0.00024632      -2.71437757       2.71572678       0.00000000
