10
Lattice="16.28999089631971 0.0 0.0 0.0 16.28999089631971 0.0 0.0 0.0 34.433804113860816" Properties=species:S:1:pos:R:3:initial_magmoms:R:1 pbc="T T T"
Si      -0.56422044       1.64248812       1.58178654       0.00000000
Si      -0.58090140      -2.24357283       0.39530029       0.00000000
Si      -1.13700942       0.70380945      -2.00563248       0.00000000
Si       2.41164232      -0.13401783       0.01094996       0.00000000
Si       2.52872995      -1.80035451      -1.56742764       0.00000000
Si       0.61784712      -3.16532619      -1.41705513       0.00000000
Si       0.38910294       3.55122882       0.50304373       0.00000000
Si       0.34969743      -2.61653238       2.58253675       0.00000000
Si      -2.81067660       1.41897303       2.13741072       0.00000000
Si       0.55948005       1.07391825       3.62973819       0.00000000
