10
Lattice="16.28999089631971 0.0 0.0 0.0 16.28999089631971 0.0 0.0 0.0 34.433804113860816" Properties=species:S:1:pos:R:3:initial_magmoms:R:1 pbc="T T T"
Si       2.00301418      -0.26466363      -1.29023536       0.00000000
Si      -1.18040598       1.86647562      -1.00374595       0.00000000
Si      -1.68190992      -1.69137441      -0.45411326       0.00000000
Si       0.81643429      -0.61172208       2.29126104       0.00000000
Si       2.70659069      -2.36201742      -0.51237529       0.00000000
Si       1.10852377       0.10432116      -3.45805114       0.00000000
Si       1.78760011      -2.82830238       1.59087707       0.00000000
Si      -2.24326332      -1.32626664      -2.76076622       0.00000000
Si      -0.18023256       2.07296766      -3.21243468       0.00000000
Si       1.82691603       1.65325581       2.93445043       0.00000000
