10
Lattice="16.28999089631971 0.0 0.0 0.0 16.28999089631971 0.0 0.0 0.0 34.433804113860816" Properties=species:S:1:pos:R:3:initial_magmoms:R:1 pbc="T T T"
Si      -0.07785480       1.02952800       2.08982317       0.00000000
Si       0.75863670      -2.20320621       0.29964313       0.00000000
Si      -2.34652793      -0.11981295      -0.40043093       0.00000000
Si       1.44562836       1.62781083      -1.00009597       0.00000000
Si      -1.07455586      -3.39280952      -0.67631472       0.00000000
Si      -2.72334821       1.90674450      -1.45479460       0.00000000
Si       2.17805934       1.63098738       2.50316679       0.00000000
Si      -1.07584277       3.13219233       1.75529858       0.00000000
Si      -2.68252547      -1.98944883      -1.78270790       0.00000000
Si       0.98215016      -2.67822261       2.63677002       0.00000000
