10
Lattice="16.28999089631971 0.0 0.0 0.0 16.28999089631971 0.0 0.0 0.0 34.433804113860816" Properties=species:S:1:pos:R:3:initial_magmoms:R:1 pbc="T T T"
Si       1.00756908      -0.26730261      -2.05886445       0.00000000
Si       1.83187566       0.91217484       1.10961343       0.00000000
Si      -0.92917997      -1.94105124       0.98401262       0.00000000
Si      -1.69082544       1.76252913      -0.24825268       0.00000000
Si       0.47578203       2.16808497       2.48859164       0.00000000
Si      -2.25136664      -0.56107647       2.43725770       0.00000000
Si      -0.99100867       0.74657070      -3.20761123       0.00000000
Si       3.21377265       0.81630819      -1.73842329       0.00000000
Si       2.64653856       2.65748544      -0.25725152       0.00000000
Si      -0.88777079       3.47631858       1.14743210       0.00000000
