10
Lattice="16.28999089631971 0.0 0.0 0.0 16.28999089631971 0.0 0.0 0.0 34.433804113860816" Properties=species:S:1:pos:R:3:initial_magmoms:R:1 pbc="T T T"
Si      -1.35844671       1.35382932      -1.35745018       0.00000000
Si       1.35696175       1.35672894       1.35762235       0.00000000
Si      -1.35849558      -1.35811359       1.35734688       0.00000000
Si       1.36003730      -1.35705474      -1.36030819       0.00000000
Si       2.70909202       0.00545715      -2.68555586       0.00000000
Si       2.71292017       2.71161711       0.00117075       0.00000000
Si      -2.71439373       2.71342530      -0.00075754       0.00000000
Si      -0.00055744       2.71381626       2.71469377       0.00000000
Si       2.71427224      -0.00086337       2.71462490       0.00000000
Si      -0.00045926      -2.71549413       2.71407396       0.00000000
