10
Lattice="16.28999089631971 0.0 0.0 0.0 16.28999089631971 0.0 0.0 0.0 34.433804113860816" Properties=species:S:1:pos:R:3:initial_magmoms:R:1 pbc="T T T"
Si      -1.35732515       1.35544203      -1.36041149       0.00000000
Si       1.35837423      -1.35904212      -1.36051479       0.00000000
Si       1.36857177       1.35956340       1.35827660       0.00000000
Si      -1.36038442      -1.38427533       1.36623081       0.00000000
Si      -2.70888758       2.71072116       0.00127405       0.00000000
Si       2.71103067       2.71254564      -0.00092971       0.00000000
Si      -2.71307692      -2.71702539      -0.00668016       0.00000000
Si       0.00039096       2.71295289      -2.71737960       0.00000000
Si       2.71280628      -2.71852407      -0.00092971       0.00000000
Si       2.71487511      -0.00140094      -2.71693196       0.00000000
