10
Lattice="16.28999089631971 0.0 0.0 0.0 16.28999089631971 0.0 0.0 0.0 34.433804113860816" Properties=species:S:1:pos:R:3:initial_magmoms:R:1 pbc="T T T"
Si       1.23725808      -1.41086061      -1.42535368       0.00000000
Si      -1.47150502       1.29441969      -1.41512684       0.00000000
Si      -1.21494078      -1.81351683       1.08779891       0.00000000
Si       1.74627171       0.85928121       1.63701840       0.00000000
Si      -2.10951265      -0.63263844       2.87580963       0.00000000
Si       0.67070817      -3.38822226       1.25142844       0.00000000
Si       2.57759928      -2.70902700       0.01614946       0.00000000
Si       2.57971698      -0.05787837      -2.78455999       0.00000000
Si      -2.91145373       2.47966380      -0.01256835       0.00000000
Si      -0.12875616       2.65230522      -2.78476660       0.00000000
