10
Lattice="16.28999089631971 0.0 0.0 0.0 16.28999089631971 0.0 0.0 0.0 34.433804113860816" Properties=species:S:1:pos:R:3:initial_magmoms:R:1 pbc="T T T"
Si       0.30127215      -0.59114781       2.22070614       0.00000000
Si       2.01030817       1.02732885      -0.60083578       0.00000000
Si       0.10798641      -2.14138566      -0.93956130       0.00000000
Si      -1.69588578       1.64633256      -0.12162026       0.00000000
Si      -0.19734683       3.36813669       0.67996471       0.00000000
Si      -1.87406580      -0.59640948       3.01154776       0.00000000
Si       2.04619504      -2.96308584       0.17079176       0.00000000
Si       2.47711441      -0.00273672      -2.68256701       0.00000000
Si      -1.99145154      -3.05815428      -0.16917337       0.00000000
Si       0.91431697      -1.75686021      -3.12655673       0.00000000
