10
Lattice="16.28999089631971 0.0 0.0 0.0 16.28999089631971 0.0 0.0 0.0 34.433804113860816" Properties=species:S:1:pos:R:3:initial_magmoms:R:1 pbc="T T T"
Si      -2.17533795      -0.00526167       0.79084162       0.00000000
Si      -0.30127215       0.59114781      -2.22070614       0.00000000
Si       1.09944794       1.49294592       1.40493443       0.00000000
Si       1.00095860      -2.14560477       0.18911056       0.00000000
Si      -1.52051253      -0.64122327       2.94450510       0.00000000
Si       3.27241991       0.68434290       1.09613190       0.00000000
Si      -0.19328574      -1.55023785      -3.16026744       0.00000000
Si       1.74492290      -2.37193803      -2.04991437       0.00000000
Si       2.79113186      -1.63675404       1.64786505       0.00000000
Si       0.18045736       1.02666096       3.50818679       0.00000000
