10
Lattice="16.28999089631971 0.0 0.0 0.0 16.28999089631971 0.0 0.0 0.0 34.433804113860816" Properties=species:S:1:pos:R:3:initial_magmoms:R:1 pbc="T T T"
Si      -0.96278787      -1.70163711      -1.31959850       0.00000000
Si      -1.25587755       1.43384580       1.39874323       0.00000000
Si       1.46829915      -1.25667576       1.40892531       0.00000000
Si       0.35679987       1.71857286      -1.63728495       0.00000000
Si       2.68200189       1.04770764      -1.76145332       0.00000000
Si      -2.61122021      -2.67004503       0.09727555       0.00000000
Si      -2.65967482       2.67861913      -0.07687007       0.00000000
Si      -2.59834622       0.09125658       2.76616200       0.00000000
Si       0.11285712      -2.62477512       2.76905444       0.00000000
Si       2.71130760      -2.68791516       0.05645081       0.00000000
