10
Lattice="16.28999089631971 0.0 0.0 0.0 16.28999089631971 0.0 0.0 0.0 34.433804113860816" Properties=species:S:1:pos:R:3:initial_magmoms:R:1 pbc="T T T"
Si      -1.43994870       1.18524411       1.40255849       0.00000000
Si       1.34274886       1.35788553      -1.36963976       0.00000000
Si      -1.36869624      -1.35412254      -1.36722939       0.00000000
Si       1.47150502      -1.29441969       1.41512684       0.00000000
Si      -0.07128504       2.56802076       2.71903243       0.00000000
Si       2.70876310      -2.70528030      -0.01022685       0.00000000
Si       2.69869588       0.00584811      -2.72760645       0.00000000
Si       2.69354824       2.73857706      -0.01002024       0.00000000
Si      -0.01713382      -2.70940167      -2.72891493       0.00000000
Si      -2.73757752      -2.71142163      -0.01367023       0.00000000
