10
Lattice="10.86 0.0 0.0 0.0 10.86 0.0 0.0 0.0 10.86" Properties=species:S:1:pos:R:3:initial_magmoms:R:1 pbc="T T T"
Si      -1.00109652       1.36537350      -1.45668438       0.00000000
Si       1.33301070      -1.37238906      -1.30477470       0.00000000
Si       1.33301070       1.34261094       1.41022530       0.00000000
Si      -1.38198930      -1.37238906       1.41022530       0.00000000
Si      -2.68394040       2.49912492      -0.02337072       0.00000000
Si      -2.55432630       0.30039846      -2.71167684       0.00000000
Si       2.51748918       2.82644532      -0.06014268       0.00000000
Si      -0.02448930      -2.72988906      -2.66227470       0.00000000
Si       2.69051070      -2.72988906       0.05272530       0.00000000
Si       2.75406342       0.01683300      -2.67582798       0.00000000
