10
Lattice="10.86 0.0 0.0 0.0 10.86 0.0 0.0 0.0 10.86" Properties=species:S:1:pos:R:3:initial_magmoms:R:1 pbc="T T T"
Si      -1.21229094       1.30630596      -1.28347824       0.00000000
Si      -1.21229094      -1.40869404       1.43152176       0.00000000
Si       1.50270906      -1.40869404      -1.28347824       0.00000000
Si       1.83885864       1.10032434       1.61531640       0.00000000
Si      -2.56979094      -0.05119404      -2.64097824       0.00000000
Si       0.33037206      -2.45090652       2.73961962       0.00000000
Si      -2.56979094       2.66380596       0.07402176       0.00000000
Si       0.14520906       2.66380596      -2.64097824       0.00000000
Si      -2.56979094      -2.76619404       0.07402176       0.00000000
Si       2.85994842       2.46546978       0.20954370       0.00000000
