10
Lattice="10.86 0.0 0.0 0.0 10.86 0.0 0.0 0.0 10.86" Properties=species:S:1:pos:R:3:initial_magmoms:R:1 pbc="T T T"
Si       1.39057956       1.34438112       1.22019702       0.00000000
Si      -1.32442044       1.34438112      -1.49480298       0.00000000
Si       1.39057956      -1.37061888      -1.49480298       0.00000000
Si      -0.22257570       2.44384752       2.66996358       0.00000000
Si      -2.68218108       2.50354494      -0.00178104       0.00000000
Si       0.09663228      -2.69639682       2.56414374       0.00000000
Si       2.74807956      -0.01311888       2.57769702       0.00000000
Si       2.74807956       2.70188112      -0.13730298       0.00000000
Si       2.74807956      -2.72811888      -0.13730298       0.00000000
Si      -2.68192044      -0.01311888      -2.85230298       0.00000000
