10
Lattice="10.86 0.0 0.0 0.0 10.86 0.0 0.0 0.0 10.86" Properties=species:S:1:pos:R:3:initial_magmoms:R:1 pbc="T T T"
Si      -1.25528568       1.38674598      -1.31228982       0.00000000
Si      -1.25528568      -1.32825402       1.40271018       0.00000000
Si       1.45971432      -1.32825402      -1.31228982       0.00000000
Si      -2.42762268       0.34453350       2.71080804       0.00000000
Si      -2.61278568       0.02924598      -2.66978982       0.00000000
Si      -2.61278568      -2.68575402       0.04521018       0.00000000
Si       0.10221432      -2.68575402      -2.66978982       0.00000000
Si       0.10221432       2.74424598      -2.66978982       0.00000000
Si       0.10221432      -2.68575402       2.76021018       0.00000000
Si       2.81721432       0.02924598      -2.66978982       0.00000000
