10
Lattice="10.86 0.0 0.0 0.0 10.86 0.0 0.0 0.0 10.86" Properties=species:S:1:pos:R:3:initial_magmoms:R:1 pbc="T T T"
Si       1.35750000      -1.35750000      -1.35750000       0.00000000
Si      -1.35750000      -1.35750000       1.35750000       0.00000000
Si       1.35750000       1.35750000       1.35750000       0.00000000
Si      -1.35750000       1.35750000      -1.35750000       0.00000000
Si       2.37309462       2.75581188      -0.15167076       0.00000000
Si      -0.15349524       2.74856826       2.40276414       0.00000000
Si       2.56539264      -2.75392224      -0.14581722       0.00000000
Si      -2.82001620       2.51016954       0.05312712       0.00000000
Si      -0.11435580      -2.76686736       2.63882796       0.00000000
Si       2.71500000       0.00000000      -2.71500000       0.00000000
