10
Lattice="10.86 0.0 0.0 0.0 10.86 0.0 0.0 0.0 10.86" Properties=species:S:1:pos:R:3:initial_magmoms:R:1 pbc="T T T"
Si       1.33356456      -1.31653608      -1.24214508       0.00000000
Si      -1.38143544       1.39846392      -1.24214508       0.00000000
Si      -1.38143544      -1.31653608       1.47285492       0.00000000
Si       1.32022848       0.86357634       2.07108888       0.00000000
Si       2.56135272       2.24907342       0.19555602       0.00000000
Si       2.56127670      -2.65446636       0.05423484       0.00000000
Si      -0.02393544      -2.67403608      -2.59964508       0.00000000
Si       0.04121370       2.48717892       2.78245146       0.00000000
Si       2.69106456       0.04096392      -2.59964508       0.00000000
Si      -2.73893544       0.04096392      -2.59964508       0.00000000
