10
Lattice="10.86 0.0 0.0 0.0 10.86 0.0 0.0 0.0 10.86" Properties=species:S:1:pos:R:3:initial_magmoms:R:1 pbc="T T T"
Si      -1.22771214       1.33793028      -1.29637992       0.00000000
Si      -1.22771214      -1.37706972       1.41862008       0.00000000
Si       1.48728786      -1.37706972      -1.29637992       0.00000000
Si       2.50288248       0.02124216       2.62444932       0.00000000
Si      -2.56127670       2.65446636      -0.05423484       0.00000000
Si      -2.58521214      -0.01956972      -2.65387992       0.00000000
Si      -2.58521214      -2.73456972       0.06112008       0.00000000
Si       0.12978786       2.69543028      -2.65387992       0.00000000
Si       0.12978786      -2.73456972      -2.65387992       0.00000000
Si       2.80910190       2.64048954       0.00561462       0.00000000
