10
Lattice="10.86 0.0 0.0 0.0 10.86 0.0 0.0 0.0 10.86" Properties=species:S:1:pos:R:3:initial_magmoms:R:1 pbc="T T T"
Si      -1.34391414      -1.31715510       1.23613950       0.00000000
Si       1.37108586       1.39784490       1.23613950       0.00000000
Si       1.37108586      -1.31715510      -1.47886050       0.00000000
Si       0.01358586      -2.67465510       2.59363950       0.00000000
Si      -2.70141414       0.04034490       2.59363950       0.00000000
Si       2.72858586       0.04034490       2.59363950       0.00000000
Si       0.01358586       2.75534490       2.59363950       0.00000000
Si      -2.70141414      -2.67465510      -0.12136050       0.00000000
Si       2.72858586      -2.67465510      -0.12136050       0.00000000
Si       2.72288436       2.71262166      -0.21292116       0.00000000
