10
Lattice="10.86 0.0 0.0 0.0 10.86 0.0 0.0 0.0 10.86" Properties=species:S:1:pos:R:3:initial_magmoms:R:1 pbc="T T T"
Si      -1.35750000      -1.35750000       1.35750000       0.00000000
Si      -1.35750000       1.35750000      -1.35750000       0.00000000
Si       1.35750000       1.35750000       1.35750000       0.00000000
Si       1.35750000      -1.35750000      -1.35750000       0.00000000
Si      -2.49431394      -2.71237188       0.12095868       0.00000000
Si       2.53974132      -0.05099856       2.71620546       0.00000000
Si      -2.45591298       0.10308312      -2.83350432       0.00000000
Si      -2.72070150      -0.04272324       2.62343934       0.00000000
Si       2.59123944       0.15726366      -2.78447142       0.00000000
Si       2.80202118      -2.58189984      -0.06525774       0.00000000
