10
Lattice="10.86 0.0 0.0 0.0 10.86 0.0 0.0 0.0 10.86" Properties=species:S:1:pos:R:3:initial_magmoms:R:1 pbc="T T T"
Si      -1.16762376       1.40010378      -1.42544016       0.00000000
Si      -2.54247804      -2.50127520      -0.22419384       0.00000000
Si       0.17686596      -2.55586842       2.54662656       0.00000000
Si      -2.58006450       0.21263880       2.56262334       0.00000000
Si       2.87377320      -2.49417276      -0.21073830       0.00000000
Si      -2.54339028       2.84143212      -0.20546034       0.00000000
Si      -2.52321240       0.09697980      -2.87690088       0.00000000
Si       0.15258300      -2.53371402      -2.90284542       0.00000000
Si       0.06828768       2.95173714       2.59029462       0.00000000
Si       2.95431096       0.03951954       2.68337568       0.00000000
