10
Lattice="10.86 0.0 0.0 0.0 10.86 0.0 0.0 0.0 10.86" Properties=species:S:1:pos:R:3:initial_magmoms:R:1 pbc="T T T"
Si       1.27725546       1.32578880       1.38133770       0.00000000
Si       1.27725546      -1.38921120      -1.33366230       0.00000000
Si      -1.43774454       1.32578880      -1.33366230       0.00000000
Si       2.63475546       2.68328880       0.02383770       0.00000000
Si       2.63475546      -0.03171120      -2.69116230       0.00000000
Si       2.63475546      -0.03171120       2.73883770       0.00000000
Si      -0.08024454       2.68328880      -2.69116230       0.00000000
Si       2.63475546      -2.74671120       0.02383770       0.00000000
Si      -0.08024454       2.68328880       2.73883770       0.00000000
Si      -2.79873060      -0.08029884      -2.63766594       0.00000000
