10
Lattice="16.28999089631971 0.0 0.0 0.0 16.28999089631971 0.0 0.0 0.0 34.49183129400761" Properties=species:S:1:pos:R:3:initial_magmoms:R:1 pbc="T T T"
Si      -1.33618725      -1.35491990       1.37474169       0.00000000
Si      -1.35439947       1.35797828      -1.35987570       0.00000000
Si       1.36023129      -1.35775436      -1.35935832       0.00000000
Si       1.36252818       1.35858427       1.38960768       0.00000000
Si       2.71410948       2.71532298       0.00206951       0.00000000
Si      -2.71278999      -0.00036259      -2.71706104       0.00000000
Si      -2.71596654      -2.71420637       0.00127620       0.00000000
Si      -2.71347417       2.71700085      -0.00120721       0.00000000
Si       0.00267156       2.71468767      -2.71740596       0.00000000
Si       0.00278559      -2.71555844      -2.71713002       0.00000000
