10
Lattice="16.28999089631971 0.0 0.0 0.0 16.28999089631971 0.0 0.0 0.0 34.49183129400761" Properties=species:S:1:pos:R:3:initial_magmoms:R:1 pbc="T T T"
Si       0.85944411      -1.91032830      -1.09739272       0.00000000
Si      -1.29306762      -0.88080030       1.81171894       0.00000000
Si       2.21004801       0.79874757       0.56276903       0.00000000
Si      -0.96003486       1.95677109      -1.10925791       0.00000000
Si       0.34736796      -0.59497596       3.47312240       0.00000000
Si       1.59897753       2.70588303       1.72207462       0.00000000
Si      -0.27616437       3.58909425       0.50461577       0.00000000
Si       1.56845007       0.33862023      -3.31577058       0.00000000
Si       3.08226348       1.68531453      -1.48801293       0.00000000
Si       1.26457641       3.01089699      -2.29919227       0.00000000
