10
Lattice="16.28999089631971 0.0 0.0 0.0 16.28999089631971 0.0 0.0 0.0 34.49183129400761" Properties=species:S:1:pos:R:3:initial_magmoms:R:1 pbc="T T T"
Si       0.60468480       1.80284688       1.30648232       0.00000000
Si       0.74269368      -2.13232842       0.53514106       0.00000000
Si       1.56067974       0.43798923      -1.72200564       0.00000000
Si      -2.32792245       0.35549667      -0.49626875       0.00000000
Si      -0.07975584       0.15216489      -3.38340910       0.00000000
Si      -0.53041869      -2.33590455       2.50103858       0.00000000
Si      -1.94145849       1.35798327      -2.58216341       0.00000000
Si       0.50670045       3.61080882      -0.17725362       0.00000000
Si       0.59556240      -3.30882480      -1.58910854       0.00000000
Si      -0.62547084       1.76184495       3.24882190       0.00000000
