10
Lattice="16.28999089631971 0.0 0.0 0.0 16.28999089631971 0.0 0.0 0.0 34.49183129400761" Properties=species:S:1:pos:R:3:initial_magmoms:R:1 pbc="T T T"
Si       1.60391340       1.08739008      -1.43027154       0.00000000
Si       1.16924733      -1.43079957       1.56201519       0.00000000
Si      -1.88476929      -0.97601535      -1.34652532       0.00000000
Si      -1.53360576       1.28245433       1.57514624       0.00000000
Si      -0.29944278       1.99378916      -2.84550666       0.00000000
Si       2.65052961       2.64563025       0.05963296       0.00000000
Si       2.65188168      -2.76161112       0.03703390       0.00000000
Si      -3.71158528       0.61638102      -0.94669679       0.00000000
Si       2.51734257      -0.07512948       2.95741750       0.00000000
Si      -2.98975909       2.52009462       0.16470893       0.00000000
