10
Lattice="16.28999089631971 0.0 0.0 0.0 16.28999089631971 0.0 0.0 0.0 34.49183129400761" Properties=species:S:1:pos:R:3:initial_magmoms:R:1 pbc="T T T"
Si       0.93564873       1.49871162      -1.64608908       0.00000000
Si      -0.53786322       1.45859630       1.96265528       0.00000000
Si      -1.82180844      -1.10770371      -1.55133996       0.00000000
Si       2.02212657      -1.43936811       1.29520348       0.00000000
Si       2.35936215       2.82784693      -0.32318864       0.00000000
Si       2.09391660       0.09858708      -3.08405433       0.00000000
Si       0.84418038       3.41299025       1.35825458       0.00000000
Si      -2.22987294       0.22507893       3.25723791       0.00000000
Si       2.55823047      -3.03314913      -0.48343778       0.00000000
Si      -0.63151443      -2.60209944      -3.04673414       0.00000000
