10
Lattice="16.28999089631971 0.0 0.0 0.0 16.28999089631971 0.0 0.0 0.0 34.49183129400761" Properties=species:S:1:pos:R:3:initial_magmoms:R:1 pbc="T T T"
Si       1.35684297       1.35667506       1.35746127       0.00000000
Si      -1.35721764      -1.35692358       1.35804763       0.00000000
Si       1.35799956      -1.35778695      -1.35690940       0.00000000
Si      -1.35754344       1.35784632      -1.35739229       0.00000000
Si       2.71336014       0.00062133      -2.71468110       0.00000000
Si       0.00037467       2.71341704      -2.71485356       0.00000000
Si       0.00079821      -2.71446702      -2.71454313       0.00000000
Si      -2.71466334      -2.71472766       0.00027593       0.00000000
Si       2.71523349      -0.00073221       2.71433618       0.00000000
Si       2.71520091      -2.71476024       0.00000000       0.00000000
