10
Lattice="16.28999089631971 0.0 0.0 0.0 16.28999089631971 0.0 0.0 0.0 34.49183129400761" Properties=species:S:1:pos:R:3:initial_magmoms:R:1 pbc="T T T"
Si      -0.95472432       0.05657517      -2.10526602       0.00000000
Si      -1.79738973      -1.01794581       1.04665934       0.00000000
Si       1.12827798       1.86683400       1.01378171       0.00000000
Si       1.77473034      -1.71875790      -0.01667612       0.00000000
Si      -0.35925966      -2.28076290       2.39785690       0.00000000
Si       2.39914233       0.45963864       2.38239075       0.00000000
Si       1.39740507      -2.26110087      -2.23592115       0.00000000
Si       1.02905559      -0.23307732      -3.32462192       0.00000000
Si      -2.69400762      -2.32182999      -0.72193586       0.00000000
Si       2.19572910       3.02717070      -0.73769863       0.00000000
