10
Lattice="16.28999089631971 0.0 0.0 0.0 16.28999089631971 0.0 0.0 0.0 34.49183129400761" Properties=species:S:1:pos:R:3:initial_magmoms:R:1 pbc="T T T"
Si       1.81942896       0.04757820       1.46700739       0.00000000
Si       0.02407027       2.32892917      -0.26065491       0.00000000
Si       0.28738378      -1.19031030      -2.00114819       0.00000000
Si      -1.20111890      -0.99569856       1.79074790       0.00000000
Si       0.73109243      -0.88079053       3.31539117       0.00000000
Si       2.36087598       2.51178442      -0.74905952       0.00000000
Si      -1.39117433      -0.08031622      -3.25747935       0.00000000
Si       0.33440487      -3.41415009      -1.18465710       0.00000000
Si       3.17294877      -1.69796601       0.89264909       0.00000000
Si       2.46387765      -0.83333939      -2.82219220       0.00000000
