10
Lattice="16.28999089631971 0.0 0.0 0.0 16.28999089631971 0.0 0.0 0.0 34.49183129400761" Properties=species:S:1:pos:R:3:initial_magmoms:R:1 pbc="T T T"
Si      -1.51617546       0.06046848      -1.72762781       0.00000000
Si       2.21798124      -0.56171178       0.54221189       0.00000000
Si       1.61350821      -0.64158165      -1.96062026       0.00000000
Si       1.51381341       1.34669430       1.82775765       0.00000000
Si      -0.30387366       2.67227676       1.01657831       0.00000000
Si      -0.70900596      -2.24894853       2.21837786       0.00000000
Si      -2.24029854       2.58624927      -0.23485501       0.00000000
Si      -1.81578114      -2.97694863       0.11271937       0.00000000
Si       1.64597418      -2.56701078       1.82799910       0.00000000
Si      -1.56845007      -0.33862023       3.31577058       0.00000000
