10
Lattice="16.28999089631971 0.0 0.0 0.0 16.28999089631971 0.0 0.0 0.0 34.49183129400761" Properties=species:S:1:pos:R:3:initial_magmoms:R:1 pbc="T T T"
Si      -2.21798124       0.56171178      -0.54221189       0.00000000
Si      -0.70416783       1.90840608       1.28554576       0.00000000
Si      -0.57200706      -2.00529900       1.28578721       0.00000000
Si      -0.60447303      -0.07986987      -2.50283215       0.00000000
Si       2.96888508       0.53439345      -0.35781846       0.00000000
Si       1.17768555      -1.83137067      -2.76231434       0.00000000
Si       2.99050191      -1.84715568      -1.10063495       0.00000000
Si      -2.92698720      -1.68723675       1.67616597       0.00000000
Si      -1.57638330       1.02183912       3.33632772       0.00000000
Si       0.84574422      -2.24301897       3.22874764       0.00000000
