10
Lattice="16.28999089631971 0.0 0.0 0.0 16.28999089631971 0.0 0.0 0.0 34.49183129400761" Properties=species:S:1:pos:R:3:initial_magmoms:R:1 pbc="T T T"
Si      -1.46509002      -1.38556224       1.22208076       0.00000000
Si       1.01675664       0.57068757       2.07592652       0.00000000
Si       1.07303859      -1.64235780      -1.35604711       0.00000000
Si      -1.34908893       1.62250029      -1.24846702       0.00000000
Si      -0.34471269      -1.40463783      -3.29900754       0.00000000
Si      -3.21176898       0.22877676       1.66188634       0.00000000
Si       2.83685463       1.89115497       1.48563299       0.00000000
Si      -0.50313294       2.00852442       3.28469342       0.00000000
Si       1.09902114      -3.73112676      -0.15542028       0.00000000
Si      -0.27626211      -2.36799585       3.07915648       0.00000000
