10
Lattice="16.28999089631971 0.0 0.0 0.0 16.28999089631971 0.0 0.0 0.0 34.49183129400761" Properties=species:S:1:pos:R:3:initial_magmoms:R:1 pbc="T T T"
Si      -1.35772263       1.35718506       1.35715084       0.00000000
Si       1.35720135      -1.35767376       1.35763373       0.00000000
Si       1.35835794       1.35804843      -1.35684042       0.00000000
Si      -1.35785295      -1.35783666      -1.35787517       0.00000000
Si      -2.71340901      -0.00037467       2.71371533       0.00000000
Si       2.71495656       0.00125433       2.71423271       0.00000000
Si       2.71440270       2.71523349       0.00055187       0.00000000
Si       0.00159642       2.71516833       2.71485356       0.00000000
Si      -0.00167787      -2.71394658       2.71616425       0.00000000
Si       2.71503801      -2.71516833       0.00000000       0.00000000
