10
Lattice="16.28999089631971 0.0 0.0 0.0 16.28999089631971 0.0 0.0 0.0 34.49183129400761" Properties=species:S:1:pos:R:3:initial_magmoms:R:1 pbc="T T T"
Si       1.36332639       1.34741106       1.34238833       0.00000000
Si       1.35351981      -1.35366642      -1.35690940       0.00000000
Si      -1.35984033       1.36024758      -1.35628855       0.00000000
Si      -1.36638891      -1.37334474       1.37084411       0.00000000
Si      -0.04795776       2.64712500       2.61613788       0.00000000
Si       2.70699075      -2.71251306       0.00293181       0.00000000
Si       2.71057455       0.00244350      -2.71374982       0.00000000
Si      -0.00423540      -2.71259451      -2.71350838       0.00000000
Si       2.70915732       2.71769328       0.00169010       0.00000000
Si      -2.71937115      -2.71182888       0.00231095       0.00000000
