10
Lattice="16.28999089631971 0.0 0.0 0.0 16.28999089631971 0.0 0.0 0.0 34.49183129400761" Properties=species:S:1:pos:R:3:initial_magmoms:R:1 pbc="T T T"
Si      -1.41147800       1.24833528      -1.41219984       0.00000000
Si      -1.45861312      -0.98213224       1.59642913       0.00000000
Si       1.23170319      -1.50843771      -1.41378646       0.00000000
Si       1.22732118       1.68376698       1.51429024       0.00000000
Si       2.30755995       0.35492652      -2.37959277       0.00000000
Si       0.54284796       1.97195337      -2.65387197       0.00000000
Si      -2.18043931      -2.88584585       0.48502341       0.00000000
Si      -0.00245979      -2.21977254       3.00686643       0.00000000
Si      -2.49975589       3.03355638      -0.20250165       0.00000000
Si       3.13505937      -2.41483679       0.00144866       0.00000000
