10
Lattice="16.28999089631971 0.0 0.0 0.0 16.28999089631971 0.0 0.0 0.0 34.49183129400761" Properties=species:S:1:pos:R:3:initial_magmoms:R:1 pbc="T T T"
Si       1.96185357       1.00419705      -0.66734832       0.00000000
Si      -1.02754062       0.34103115       2.14111612       0.00000000
Si      -2.80797246       0.42805233       0.57884224       0.00000000
Si      -0.06792930       2.92133457      -0.77092735       0.00000000
Si      -2.33020305       1.94841432      -1.31948574       0.00000000
Si      -0.20525400       2.56735287       2.13887415       0.00000000
Si      -0.06921621      -1.41488424      -3.03635210       0.00000000
Si      -1.79409915       0.35463330      -3.09812700       0.00000000
Si      -1.50794901      -3.22745625       1.14771633       0.00000000
Si      -3.32563608      -1.90187379       0.33653699       0.00000000
