10
Lattice="16.28999089631971 0.0 0.0 0.0 16.28999089631971 0.0 0.0 0.0 34.49183129400761" Properties=species:S:1:pos:R:3:initial_magmoms:R:1 pbc="T T T"
Si      -0.02717172       2.06777115      -1.07562836       0.00000000
Si       0.09177786      -1.45798758      -1.88432429       0.00000000
Si      -2.29746015       0.27264573       0.74002265       0.00000000
Si       1.78497675      -0.45986670       1.63784552       0.00000000
Si       0.12346191      -1.90451277       2.64524900       0.00000000
Si      -2.19607119      -1.41379281      -2.39890821       0.00000000
Si       0.61455654      -3.44583999      -0.82301005       0.00000000
Si      -3.42622683      -1.45479474      -0.45656863       0.00000000
Si      -0.88946658      -3.49749558       1.04686216       0.00000000
Si       2.02709502       2.41043130      -2.07102868       0.00000000
