10
Lattice="16.28999089631971 0.0 0.0 0.0 16.28999089631971 0.0 0.0 0.0 34.49183129400761" Properties=species:S:1:pos:R:3:initial_magmoms:R:1 pbc="T T T"
Si      -1.34793234      -1.35617508      -1.36011025       0.00000000
Si       1.35563751      -1.35273789       1.35932383       0.00000000
Si      -1.36153449       1.36254594       1.35804763       0.00000000
Si       1.38240198       1.34425766      -1.36392159       0.00000000
Si      -0.01951542       2.68029863      -2.63773668       0.00000000
Si      -2.62050714       0.07587882      -2.69686951       0.00000000
Si       2.71394658      -2.71103067      -0.00158663       0.00000000
Si      -0.00252495      -2.70992295       2.71595730       0.00000000
Si      -2.71749780      -2.70935280      -0.00137967       0.00000000
Si       2.71275741       0.00413766       2.71526746       0.00000000
