10
Lattice="16.28999089631971 0.0 0.0 0.0 16.28999089631971 0.0 0.0 0.0 34.49183129400761" Properties=species:S:1:pos:R:3:initial_magmoms:R:1 pbc="T T T"
Si       0.53610390      -1.59378102      -1.77864126       0.00000000
Si      -0.47776941      -1.52036199       1.89832798       0.00000000
Si       2.26227375       0.97292025       0.54855839       0.00000000
Si      -2.02212657       1.43936811      -1.29520348       0.00000000
Si       2.33020305      -1.94841432       1.31948574       0.00000000
Si       1.38434049       0.11227068      -3.10550826       0.00000000
Si       3.03147126       1.15807239      -1.75787716       0.00000000
Si      -2.55998979       2.89796441       0.66745180       0.00000000
Si       1.30266243      -1.60738317       3.46060186       0.00000000
Si       2.12494905       0.61893855       3.45835989       0.00000000
