10
Lattice="16.28999089631971 0.0 0.0 0.0 16.28999089631971 0.0 0.0 0.0 34.49183129400761" Properties=species:S:1:pos:R:3:initial_magmoms:R:1 pbc="T T T"
Si      -0.12246822      -1.73648142      -1.61953035       0.00000000
Si       0.95040747       1.60969635      -1.50143026       0.00000000
Si      -1.81234395       1.13986017       1.08245775       0.00000000
Si       1.58449572      -0.00421911       2.41518836       0.00000000
Si      -2.52696996       1.96548624      -1.02527026       0.00000000
Si       1.93179852      -1.39382127      -2.61493067       0.00000000
Si       2.33276058       2.99882610      -0.22737028       0.00000000
Si      -0.09529650      -3.80425257      -0.54390199       0.00000000
Si       3.75350922      -0.21049938       0.83760010       0.00000000
Si      -0.77903667       3.02241402      -2.27966988       0.00000000
