10
Lattice="16.28999089631971 0.0 0.0 0.0 16.28999089631971 0.0 0.0 0.0 34.49183129400761" Properties=species:S:1:pos:R:3:initial_magmoms:R:1 pbc="T T T"
Si      -1.35739683       1.35790182      -1.35946180       0.00000000
Si       1.35887922      -1.35645527      -1.36063452       0.00000000
Si      -1.35923760      -1.35021457       1.36722246       0.00000000
Si       1.35861858       1.36357074       1.36773984       0.00000000
Si      -2.55795354       0.14027319       2.78428565       0.00000000
Si       2.71450044      -2.71385603      -0.00565666       0.00000000
Si       2.71573751       2.71329498       0.00027593       0.00000000
Si      -2.71559187      -2.71494746      -0.00331122       0.00000000
Si      -0.00047241      -2.71408574      -2.71764740       0.00000000
Si       2.71452402       0.00063531      -2.71740596       0.00000000
