10
Lattice="16.28999089631971 0.0 0.0 0.0 16.28999089631971 0.0 0.0 0.0 34.49183129400761" Properties=species:S:1:pos:R:3:initial_magmoms:R:1 pbc="T T T"
Si      -1.35704822      -1.35690813       1.35680593       0.00000000
Si       1.35705474      -1.35720135      -1.35711635       0.00000000
Si      -1.35770960       1.35747828      -1.35735780       0.00000000
Si       1.36029645       1.35922131       1.35880645       0.00000000
Si      -0.00133578      -2.71233387       2.71599179       0.00000000
Si       0.00175932      -2.71458189      -2.71419821       0.00000000
Si      -0.00079821       2.71440270      -2.71464661       0.00000000
Si       2.71480995      -2.71464705      -0.00020695       0.00000000
Si       2.71593396      -0.00392589       2.71364634       0.00000000
Si       2.71503801       2.71479366       0.00003449       0.00000000
