10
Lattice="16.28999089631971 0.0 0.0 0.0 16.28999089631971 0.0 0.0 0.0 34.49183129400761" Properties=species:S:1:pos:R:3:initial_magmoms:R:1 pbc="T T T"
Si      -0.53699985       1.17317322       1.98617872       0.00000000
Si      -1.40300883       0.61941096      -1.82330820       0.00000000
Si      -0.64865151      -2.19820844       0.66234701       0.00000000
Si       2.29846103       0.32270490      -0.64503210       0.00000000
Si      -2.57667075      -1.50456069       1.96703575       0.00000000
Si      -2.06532765      -2.90183870      -1.10974080       0.00000000
Si       0.76659308       0.21103695       3.65917144       0.00000000
Si       3.59253863      -0.63237780       1.09256386       0.00000000
Si      -0.83189772       2.74374099      -2.58388800       0.00000000
Si       1.02990660      -3.30820252       1.91867817       0.00000000
