10
Lattice="16.28999089631971 0.0 0.0 0.0 16.28999089631971 0.0 0.0 0.0 34.49183129400761" Properties=species:S:1:pos:R:3:initial_magmoms:R:1 pbc="T T T"
Si      -1.71593973      -0.93188737       1.37318955       0.00000000
Si      -1.17354789      -0.03886794      -2.11093575       0.00000000
Si       1.92801924      -0.69364775      -1.30468874       0.00000000
Si      -0.22936320       2.22246099       1.03144430       0.00000000
Si      -2.54883114       1.32426297       1.12364102       0.00000000
Si       2.03967090       2.67773391       0.01914298       0.00000000
Si       0.51134310      -1.39727801      -3.07677655       0.00000000
Si       2.57667075       1.50456069      -1.96703575       0.00000000
Si      -3.10720347      -1.36014984      -1.88232376       0.00000000
Si       3.31919357      -0.61333153       1.95279061       0.00000000
