10
Lattice="16.28999089631971 0.0 0.0 0.0 16.28999089631971 0.0 0.0 0.0 34.49183129400761" Properties=species:S:1:pos:R:3:initial_magmoms:R:1 pbc="T T T"
Si      -0.57129030      -2.22947125       0.51103126       0.00000000
Si       1.20111890       0.99569856      -1.79074790       0.00000000
Si      -1.72726128       1.57164454       0.64627380       0.00000000
Si       1.93221133       0.11490803       1.52464327       0.00000000
Si       3.02054786       1.04327676      -0.32374051       0.00000000
Si      -1.15882173       1.39027168       2.93946449       0.00000000
Si       1.14704406       1.90339039       2.87461981       0.00000000
Si      -3.72431754       0.49881283       0.02590338       0.00000000
Si      -1.92523365      -2.13663454       2.46665020       0.00000000
Si       1.35558442      -3.63257782       0.52520741       0.00000000
