10
Lattice="16.28999089631971 0.0 0.0 0.0 16.28999089631971 0.0 0.0 0.0 34.49183129400761" Properties=species:S:1:pos:R:3:initial_magmoms:R:1 pbc="T T T"
Si      -1.99705626      -1.07283171      -0.62037042       0.00000000
Si       0.56843955      -0.18137286       2.29319069       0.00000000
Si       1.72726128      -1.57164454      -0.64627380       0.00000000
Si      -0.11372049       2.23021503      -0.96080499       0.00000000
Si       2.87430534       0.33174585       2.22834601       0.00000000
Si      -2.20701807      -2.74984064       1.06048644       0.00000000
Si      -1.68052527       3.33712053       0.53455470       0.00000000
Si       2.14760844       2.99144673      -0.83380600       0.00000000
Si      -2.10675312      -0.89450182      -3.01662276       0.00000000
Si       2.92838018      -0.57594598      -2.43702170       0.00000000
