10
Lattice="16.28999089631971 0.0 0.0 0.0 16.28999089631971 0.0 0.0 0.0 34.49183129400761" Properties=species:S:1:pos:R:3:initial_magmoms:R:1 pbc="T T T"
Si      -1.35523026      -1.33439535       1.35904790       0.00000000
Si      -1.35347094       1.35884664      -1.35984121       0.00000000
Si       1.36133901      -1.35729909      -1.35977223       0.00000000
Si       1.36345671       1.36402686       1.37784595       0.00000000
Si       0.08265546      -2.56096719       2.71440516       0.00000000
Si      -2.70699075       2.71251306      -0.00293181       0.00000000
Si      -2.71122615      -0.00008145      -2.71644018       0.00000000
Si      -2.71498914      -2.71329498      -0.00058636       0.00000000
Si       0.00358380       2.71495656      -2.71668163       0.00000000
Si       0.00361638      -2.71539639      -2.71668163       0.00000000
