10
Lattice="16.28999089631971 0.0 0.0 0.0 16.28999089631971 0.0 0.0 0.0 34.49183129400761" Properties=species:S:1:pos:R:3:initial_magmoms:R:1 pbc="T T T"
Si      -1.43707122      -1.20073590      -1.45476278       0.00000000
Si       1.31946167       1.44651942      -1.39240152       0.00000000
Si       1.35189392      -1.41535665       1.43730991       0.00000000
Si      -1.16370873       0.05771547       2.37338424       0.00000000
Si      -1.14209190      -2.32383366       1.63056774       0.00000000
Si      -2.95490826      -2.30804865      -0.03111165       0.00000000
Si       2.57090476       0.00083079      -2.79432278       0.00000000
Si      -0.15667722      -2.70730026      -2.80053132       0.00000000
Si      -0.15626997       2.72425815      -2.79132199       0.00000000
Si       1.03904136       2.04235875       3.18897854       0.00000000
