10
Lattice="16.28999089631971 0.0 0.0 0.0 16.28999089631971 0.0 0.0 0.0 34.49183129400761" Properties=species:S:1:pos:R:3:initial_magmoms:R:1 pbc="T T T"
Si       2.10996225      -0.66329622       0.70784176       0.00000000
Si      -1.82009799      -1.32046740       0.59029353       0.00000000
Si      -0.23653080       2.17598562       0.78844921       0.00000000
Si       0.81897975       0.06643062      -2.22741473       0.00000000
Si       1.47538530      -2.90567988       0.48902546       0.00000000
Si       3.10750876      -0.02523321      -1.41433833       0.00000000
Si      -1.74742830       1.71242109       2.51224843       0.00000000
Si       0.04799034       2.18339757      -2.85337283       0.00000000
Si      -0.93486681       3.42959886      -1.05934821       0.00000000
Si      -2.83685463      -1.89115497      -1.48563299       0.00000000
