10
Lattice="16.28999089631971 0.0 0.0 0.0 16.28999089631971 0.0 0.0 0.0 34.49183129400761" Properties=species:S:1:pos:R:3:initial_magmoms:R:1 pbc="T T T"
Si       2.06218368       0.46934748      -0.93383236       0.00000000
Si       0.77098941      -2.11696695       0.62595810       0.00000000
Si      -0.98285715       1.24620129       1.79402462       0.00000000
Si      -0.04799034      -2.18339757       2.85337283       0.00000000
Si      -2.88131004       2.00300211      -0.93810935       0.00000000
Si      -0.28452114      -0.00741195       3.64182204       0.00000000
Si      -3.28065939       1.16924733       1.26178088       0.00000000
Si       1.86287553       2.54901033      -2.00549416       0.00000000
Si       3.67753822      -0.02681334       0.76954768       0.00000000
Si       2.51408457      -0.95485464      -2.75927906       0.00000000
