10
Lattice="16.28999089631971 0.0 0.0 0.0 16.28999089631971 0.0 0.0 0.0 34.49183129400761" Properties=species:S:1:pos:R:3:initial_magmoms:R:1 pbc="T T T"
Si      -0.74287287       2.21552145      -0.04066589       0.00000000
Si       1.94854368      -0.25246242      -1.27971664       0.00000000
Si       0.99953731       0.08633700       2.14242681       0.00000000
Si      -2.00510352      -1.13327901      -0.55693991       0.00000000
Si      -2.00981133       2.16655371       1.97227851       0.00000000
Si       0.25964631      -1.98462699       2.99651401       0.00000000
Si      -2.70343953       0.12033423      -2.40473733       0.00000000
Si       1.32074011       3.36983085      -0.10737313       0.00000000
Si       2.59821332       2.01458430      -1.56217040       0.00000000
Si      -2.28581280       2.42053110      -1.82958572       0.00000000
