10
Lattice="16.28999089631971 0.0 0.0 0.0 16.28999089631971 0.0 0.0 0.0 34.49183129400761" Properties=species:S:1:pos:R:3:initial_magmoms:R:1 pbc="T T T"
Si      -2.35397016       0.06981894       0.10551057       0.00000000
Si       0.73989100       2.07096399      -0.85408720       0.00000000
Si       0.66140658      -1.87530480      -1.33400681       0.00000000
Si       0.66816693      -0.25308144       2.32416437       0.00000000
Si      -0.25964631       1.98462699      -2.99651401       0.00000000
Si       3.07401164       1.72418247      -1.00257462       0.00000000
Si      -2.85630489       2.35893861       0.51779166       0.00000000
Si       2.98234781      -1.58193819      -1.67454485       0.00000000
Si       3.00844439      -0.54309231       2.32475073       0.00000000
Si      -3.09742947      -1.44871857       1.81899672       0.00000000
