10
Lattice="16.28999089631971 0.0 0.0 0.0 16.28999089631971 0.0 0.0 0.0 34.49183129400761" Properties=species:S:1:pos:R:3:initial_magmoms:R:1 pbc="T T T"
Si      -1.31606910       0.96897807      -1.66630130       0.00000000
Si       2.34291562      -0.62706726      -0.50861683       0.00000000
Si      -1.78466724      -1.70808795       0.36806254       0.00000000
Si      -0.36890334       1.88996580       1.84586588       0.00000000
Si      -3.13009092      -0.37888911       1.78833347       0.00000000
Si       3.06670068      -0.95614155       1.78164205       0.00000000
Si      -3.48508260       1.17525834      -0.08871304       0.00000000
Si      -1.97294706       3.11629329       0.48633509       0.00000000
Si      -0.52720956      -3.32941536       1.60390554       0.00000000
Si       1.15575921      -1.89863208       3.09096791       0.00000000
