10
Lattice="16.28999089631971 0.0 0.0 0.0 16.28999089631971 0.0 0.0 0.0 34.49183129400761" Properties=species:S:1:pos:R:3:initial_magmoms:R:1 pbc="T T T"
Si       2.34027746      -0.29001087       0.00058636       0.00000000
Si      -0.66816693       0.25308144      -2.32416437       0.00000000
Si       0.00285712       2.04242391       1.47676858       0.00000000
Si      -0.31548843      -2.32091775       1.09722026       0.00000000
Si       2.91759506       1.72375893      -1.02706383       0.00000000
Si      -2.67173919      -2.01805407       1.53557719       0.00000000
Si       1.47921086       3.44012220      -0.10599346       0.00000000
Si      -3.02213709       0.32290038      -2.21865380       0.00000000
Si       3.04954406      -1.61718975      -1.75825657       0.00000000
Si       0.07172407       2.32404543      -3.17825157       0.00000000
