10
Lattice="16.28999089631971 0.0 0.0 0.0 16.28999089631971 0.0 0.0 0.0 34.49183129400761" Properties=species:S:1:pos:R:3:initial_magmoms:R:1 pbc="T T T"
Si      -1.34583093      -1.37028222       1.34069823       0.00000000
Si      -1.35496962       1.35703845      -1.35846153       0.00000000
Si       1.35904212      -1.35656604      -1.35839255       0.00000000
Si       1.36515087       1.35956340       1.36770535       0.00000000
Si      -2.75711508      -0.07056828       2.61444778       0.00000000
Si       2.71360449      -2.71318095      -0.00020695       0.00000000
Si      -2.70915732      -2.71769328      -0.00169010       0.00000000
Si      -2.71332756       2.71373481      -0.00117272       0.00000000
Si      -2.71336014      -0.00029322      -2.71550890       0.00000000
Si       0.00179190       2.71459653      -2.71550890       0.00000000
