10
Lattice="16.28999089631971 0.0 0.0 0.0 16.28999089631971 0.0 0.0 0.0 34.49183129400761" Properties=species:S:1:pos:R:3:initial_magmoms:R:1 pbc="T T T"
Si      -1.41571503      -1.11135267       1.48368217       0.00000000
Si      -1.60404372       1.22632749      -1.35953078       0.00000000
Si       1.29709125       1.60423920       1.30519374       0.00000000
Si       0.36890334      -1.88996580      -1.84586588       0.00000000
Si      -2.76118758      -2.26885491      -0.05753241       0.00000000
Si       0.03463254      -2.38467681       2.84677596       0.00000000
Si      -3.11617926      -0.71470746      -1.93457891       0.00000000
Si      -0.94716576      -0.92098773      -3.51216718       0.00000000
Si      -2.50115031       2.95415892       0.10316513       0.00000000
Si      -2.68354944       0.34197597       2.87412455       0.00000000
