10
Lattice="16.28999089631971 0.0 0.0 0.0 16.28999089631971 0.0 0.0 0.0 34.49183129400761" Properties=species:S:1:pos:R:3:initial_magmoms:R:1 pbc="T T T"
Si       1.25144309      -1.44568863      -1.40192127       0.00000000
Si      -1.47573164       1.27773873      -1.39892048       0.00000000
Si      -1.31946167      -1.44651942       1.39240152       0.00000000
Si       1.63216319       1.23973416       1.25439962       0.00000000
Si       2.59372931      -0.08666280      -2.77586964       0.00000000
Si      -2.75653289      -2.64725532      -0.06236127       0.00000000
Si      -0.12341729       2.63073726      -2.77821509       0.00000000
Si       2.68312883      -2.77685856       0.05780834       0.00000000
Si       2.73726050       2.76703569      -0.07457138       0.00000000
Si      -2.86942259       2.65375503       0.02548948       0.00000000
