10
Lattice="16.28999089631971 0.0 0.0 0.0 16.28999089631971 0.0 0.0 0.0 34.49183129400761" Properties=species:S:1:pos:R:3:initial_magmoms:R:1 pbc="T T T"
Si      -1.26622333       0.95329080      -1.82144564       0.00000000
Si       1.43838419      -1.71636327      -0.92107038       0.00000000
Si       1.37576543       1.47947409       1.40019667       0.00000000
Si      -1.47635374      -1.39769829       1.58276204       0.00000000
Si      -1.40748679      -1.11607677      -3.07225811       0.00000000
Si       0.92663384      -1.46285829      -3.22074553       0.00000000
Si      -1.47921086      -3.44012220       0.10599346       0.00000000
Si       1.23363518       3.56640228       0.22619756       0.00000000
Si       0.86106659      -3.73013307       0.10657982       0.00000000
Si       3.59100995       0.30907017       1.40740547       0.00000000
