10
Lattice="16.28999089631971 0.0 0.0 0.0 16.28999089631971 0.0 0.0 0.0 34.49183129400761" Properties=species:S:1:pos:R:3:initial_magmoms:R:1 pbc="T T T"
Si       1.58599440       1.22020245      -1.31127668       0.00000000
Si      -1.14432363      -1.50550551      -1.48125252       0.00000000
Si       0.95112423      -1.29209022       1.86763023       0.00000000
Si      -1.53898146       1.38523644       1.41333807       0.00000000
Si       0.08918775       2.43175491      -2.80805054       0.00000000
Si      -2.24942094      -3.03280704      -0.15228152       0.00000000
Si      -0.49976091      -3.28833198       1.87680507       0.00000000
Si      -2.65302850      -0.28577547      -2.81350025       0.00000000
Si      -2.85659648       2.62498689      -0.05294499       0.00000000
Si      -2.68132097      -0.16215066       2.85585624       0.00000000
