10
Lattice="16.28999089631971 0.0 0.0 0.0 16.28999089631971 0.0 0.0 0.0 34.49183129400761" Properties=species:S:1:pos:R:3:initial_magmoms:R:1 pbc="T T T"
Si      -1.31761502       1.23975045      -1.46628306       0.00000000
Si      -1.14233951      -1.54738710       1.44251817       0.00000000
Si       0.71081415       1.93916160       1.23439435       0.00000000
Si       1.53898146      -1.38523644      -1.41333807       0.00000000
Si       2.71691136       1.16774865       2.08396312       0.00000000
Si       2.49010569      -2.67732666       0.45429216       0.00000000
Si       0.33956505      -1.53124371       3.34795148       0.00000000
Si       2.58172065      -1.15880544       2.45719943       0.00000000
Si      -2.53396556      -0.34616250      -2.76707422       0.00000000
Si       0.24514821       2.43871923      -2.88248395       0.00000000
