10
Lattice="16.28999089631971 0.0 0.0 0.0 16.28999089631971 0.0 0.0 0.0 34.24959146834617" Properties=species:S:1:pos:R:3:initial_magmoms:R:1 pbc="T T T"
Si       1.35062182      -1.29410922       1.40711100       0.00000000
Si      -0.94029952      -1.76068740      -1.23601741       0.00000000
Si       1.00185292       1.63081634      -1.45422960       0.00000000
Si      -1.37735482       1.41293758       1.39921304       0.00000000
Si       2.62321291      -2.68947804      -0.01697753       0.00000000
Si      -2.72297680      -2.68216383       0.03832189       0.00000000
Si       2.60508214       2.79757130      -0.15711666       0.00000000
Si      -0.02272292      -2.64831321       2.76338531       0.00000000
Si      -0.68436245       3.51644900      -1.37439376       0.00000000
Si      -2.64056569       2.81044039      -0.00949399       0.00000000
