10
Lattice="16.28999089631971 0.0 0.0 0.0 16.28999089631971 0.0 0.0 0.0 34.24959146834617" Properties=species:S:1:pos:R:3:initial_magmoms:R:1 pbc="T T T"
Si      -1.34413418      -0.16342128      -1.86557629       0.00000000
Si       2.01004916       0.89505405      -0.78948777       0.00000000
Si       1.12960724      -2.04674076       0.57984591       0.00000000
Si      -1.04311127       1.04756103       1.91284075       0.00000000
Si       2.74961516       1.55629773       1.35635308       0.00000000
Si      -0.62514993      -0.81021573       3.34728294       0.00000000
Si      -1.37560646       2.11711356      -2.56810430       0.00000000
Si       1.58789381      -1.71132966       2.85443105       0.00000000
Si       2.96834099      -0.86353290      -2.06415553       0.00000000
Si      -0.57298120      -1.97871372      -3.15688936       0.00000000
