10
Lattice="16.28999089631971 0.0 0.0 0.0 16.28999089631971 0.0 0.0 0.0 34.24959146834617" Properties=species:S:1:pos:R:3:initial_magmoms:R:1 pbc="T T T"
Si      -1.00753650       1.94031819      -0.84093069       0.00000000
Si      -1.77033204      -1.55145960       0.14785557       0.00000000
Si       1.51578450      -0.41010075      -1.78375397       0.00000000
Si       0.95881311      -0.11950344       2.24211651       0.00000000
Si      -0.41045913      -3.45937698      -0.37986243       0.00000000
Si       2.83833702      -2.03647806      -0.64111846       0.00000000
Si       2.34549936       1.88665893      -2.13926493       0.00000000
Si      -2.50118126      -1.32914997       2.57752295       0.00000000
Si       0.69050052      -2.58488091       2.81394801       0.00000000
Si       0.29874231       2.98262148      -2.48282277       0.00000000
