10
Lattice="16.28999089631971 0.0 0.0 0.0 16.28999089631971 0.0 0.0 0.0 34.24959146834617" Properties=species:S:1:pos:R:3:initial_magmoms:R:1 pbc="T T T"
Si      -1.12318735       1.22679894       1.62213006       0.00000000
Si       1.00753650      -1.94031819       0.84093069       0.00000000
Si       1.30627881       1.04230329      -1.64189208       0.00000000
Si      -2.17497727      -0.25304886      -0.89155161       0.00000000
Si       2.52332100      -2.35041894      -0.94282328       0.00000000
Si       0.11349243       0.43918884      -3.56202800       0.00000000
Si       3.35303586      -0.05365926      -1.29833424       0.00000000
Si      -3.42111896       0.72678554       0.94998145       0.00000000
Si      -0.76279554      -3.49177779       0.98878626       0.00000000
Si      -2.16597216       0.13717809      -3.15983483       0.00000000
