10
Lattice="16.28999089631971 0.0 0.0 0.0 16.28999089631971 0.0 0.0 0.0 34.24959146834617" Properties=species:S:1:pos:R:3:initial_magmoms:R:1 pbc="T T T"
Si       1.27940031      -1.40786488      -1.44399783       0.00000000
Si      -0.83487879      -1.73555778       1.44242235       0.00000000
Si      -1.44339174       1.31341383      -1.42365356       0.00000000
Si       1.57446108       1.11650031       1.47482248       0.00000000
Si      -2.54459574      -2.62988236      -0.08582952       0.00000000
Si       2.54321109      -2.70295588       0.11031800       0.00000000
Si       2.65168620       2.67232563      -0.04524374       0.00000000
Si       2.63700891      -0.05776434      -2.81350276       0.00000000
Si       3.46942791      -0.84748725       1.48266564       0.00000000
Si      -0.07969068       2.66269824      -2.81072854       0.00000000
