10
Lattice="16.28999089631971 0.0 0.0 0.0 16.28999089631971 0.0 0.0 0.0 34.24959146834617" Properties=species:S:1:pos:R:3:initial_magmoms:R:1 pbc="T T T"
Si       2.26072620      -0.55771096      -0.49268065       0.00000000
Si      -0.21843261       2.39484340       0.45349909       0.00000000
Si      -0.15762204      -0.64285227       2.36020917       0.00000000
Si      -1.12822911      -1.45102102      -1.63171995       0.00000000
Si       1.75124016       0.66728890       3.15956083       0.00000000
Si       1.67422104       2.70480952       1.86526804       0.00000000
Si       2.17114749      -2.88845062      -0.95439965       0.00000000
Si      -3.17498616      -0.35505847      -1.97527779       0.00000000
Si       2.70850572       0.48603007      -2.60461439       0.00000000
Si      -2.20537278       2.54407609       1.87735816       0.00000000
