10
Lattice="16.28999089631971 0.0 0.0 0.0 16.28999089631971 0.0 0.0 0.0 34.24959146834617" Properties=species:S:1:pos:R:3:initial_magmoms:R:1 pbc="T T T"
Si      -1.35718506      -1.35747828      -1.35755182       0.00000000
Si       1.35782037       1.35770634      -1.35765456       0.00000000
Si      -1.35690813       1.35871632       1.36155902       0.00000000
Si       1.35979146      -1.36174626       1.35878480       0.00000000
Si       2.71471221      -2.71332104      -0.00099324       0.00000000
Si      -0.00022806      -2.71430985      -2.71489813       0.00000000
Si       2.71454931       0.00104256      -2.71493238       0.00000000
Si      -2.71450044       0.00011403      -2.71575437       0.00000000
Si      -2.71500543      -2.71529865      -0.00010275       0.00000000
Si      -2.71516833       2.71528236       0.00006850       0.00000000
