10
Lattice="16.28999089631971 0.0 0.0 0.0 16.28999089631971 0.0 0.0 0.0 34.24959146834617" Properties=species:S:1:pos:R:3:initial_magmoms:R:1 pbc="T T T"
Si      -1.33160976      -1.10913723       1.62418503       0.00000000
Si       2.18333241      -0.89234991       0.55528894       0.00000000
Si      -0.30481848       2.46451410      -0.18155719       0.00000000
Si      -0.79866612      -0.88643664      -2.20707916       0.00000000
Si      -0.72369954      -3.15371142       0.39232929       0.00000000
Si       2.02792581       2.80619685      -0.13943016       0.00000000
Si       1.68805125      -3.15753957      -0.06709499       0.00000000
Si      -2.64559374       0.67776174      -2.38408114       0.00000000
Si       2.64820014       1.28221848      -2.12100989       0.00000000
Si       1.01696841      -0.10430487      -3.53733403       0.00000000
