10
Lattice="16.28999089631971 0.0 0.0 0.0 16.28999089631971 0.0 0.0 0.0 34.24959146834617" Properties=species:S:1:pos:R:3:initial_magmoms:R:1 pbc="T T T"
Si       1.84867065      -0.15657948       1.40334355       0.00000000
Si      -0.39024324      -2.11403475      -1.00084212       0.00000000
Si       0.66966561       1.63044981      -1.67223724       0.00000000
Si      -1.83894552       0.89393004       1.38162929       0.00000000
Si      -0.45541953       3.43486053      -0.72437926       0.00000000
Si      -2.49036633       2.60700273      -0.07284892       0.00000000
Si       2.54824470       2.14669620       1.57784531       0.00000000
Si      -2.37329010      -1.86815349      -2.24581547       0.00000000
Si       1.26978921      -1.48043520       3.26748135       0.00000000
Si       1.02317490      -2.33442216      -2.85830125       0.00000000
