10
Lattice="16.28999089631971 0.0 0.0 0.0 16.28999089631971 0.0 0.0 0.0 34.24959146834617" Properties=species:S:1:pos:R:3:initial_magmoms:R:1 pbc="T T T"
Si       0.44036757      -0.69600654      -2.28170906       0.00000000
Si       1.91699091       0.49233267       1.45249315       0.00000000
Si      -1.95563079       1.64256957       0.11559244       0.00000000
Si      -0.64716912      -1.95427872       1.56290019       0.00000000
Si       0.52488009       1.90633725       2.99072193       0.00000000
Si      -0.68693301      -3.59008794      -0.20131921       0.00000000
Si       1.13217129      -3.07273383      -1.64545404       0.00000000
Si      -0.88387911       3.30020739       1.46277145       0.00000000
Si      -2.19696714      -0.83626344       3.02373856       0.00000000
Si      -1.66679280      -0.51445449      -3.47876720       0.00000000
