10
Lattice="16.28999089631971 0.0 0.0 0.0 16.28999089631971 0.0 0.0 0.0 34.24959146834617" Properties=species:S:1:pos:R:3:initial_magmoms:R:1 pbc="T T T"
Si      -1.32869385      -1.35011913      -1.38482478       0.00000000
Si      -1.35376416       1.35943634       1.36005204       0.00000000
Si       1.35993807      -1.35352183       1.36060003       0.00000000
Si       1.36808307       1.35425612      -1.39451400       0.00000000
Si      -2.64614760       0.12876431      -2.72859113       0.00000000
Si      -2.71313208      -2.71417857      -0.00503469       0.00000000
Si       0.00161271      -2.71290795       2.71691886       0.00000000
Si       2.71801908      -2.71276134      -0.00157548       0.00000000
Si       2.71836117       2.71266293      -0.00195223       0.00000000
Si      -2.71349046       0.00200204       2.71763810       0.00000000
