10
Lattice="16.28999089631971 0.0 0.0 0.0 16.28999089631971 0.0 0.0 0.0 34.24959146834617" Properties=species:S:1:pos:R:3:initial_magmoms:R:1 pbc="T T T"
Si       1.35505107       1.35791811       1.35755182       0.00000000
Si       1.35376416      -1.35943634      -1.36005204       0.00000000
Si      -1.35972630      -1.35743430       1.35758607       0.00000000
Si      -1.36353816       1.35790182      -1.36268926       0.00000000
Si       2.71370223      -2.71295817       0.00054799       0.00000000
Si       2.71265967       0.00034209       2.71517213       0.00000000
Si      -0.00167787       2.71458189       2.71482963       0.00000000
Si      -0.00228060      -2.71518416       2.71506938       0.00000000
Si       2.71280628       2.71769328       0.00030825       0.00000000
Si      -2.71668330      -0.00060273       2.71493238       0.00000000
