10
Lattice="16.28999089631971 0.0 0.0 0.0 16.28999089631971 0.0 0.0 0.0 34.24959146834617" Properties=species:S:1:pos:R:3:initial_magmoms:R:1 pbc="T T T"
Si      -1.35744570      -1.35678758       1.35631883       0.00000000
Si       1.35728280       1.35769005       1.35635308       0.00000000
Si      -1.35760860       1.35757602      -1.35762031       0.00000000
Si       1.35814617      -1.35823414      -1.35803131       0.00000000
Si       0.00092853       2.71319724       2.71342540       0.00000000
Si      -2.71265967      -0.00034209      -2.71517213       0.00000000
Si       0.00104256      -2.71330026      -2.71462414       0.00000000
Si      -2.71236645      -0.00521280       2.71609687       0.00000000
Si      -2.71433754       2.71423980      -0.00034250       0.00000000
Si       2.71212210       0.00550602       2.71695311       0.00000000
