10
Lattice="16.28999089631971 0.0 0.0 0.0 16.28999089631971 0.0 0.0 0.0 34.24959146834617" Properties=species:S:1:pos:R:3:initial_magmoms:R:1 pbc="T T T"
Si       0.53796096       1.53920952      -1.71114480       0.00000000
Si       1.68920784       0.76598838       1.48256289       0.00000000
Si      -2.22549093       0.65120904       0.64396118       0.00000000
Si       0.43267869      -2.13767154      -1.14061478       0.00000000
Si      -0.43349319       0.50740092      -3.57678958       0.00000000
Si      -1.44492300      -3.44914523      -0.29331367       0.00000000
Si       3.75005574       0.29988261       0.45555407       0.00000000
Si      -3.40213392       1.23918030      -1.30895162       0.00000000
Si       2.82523986       1.40864517      -2.27777035       0.00000000
Si       1.57478688       3.17086479       1.64470055       0.00000000
