10
Lattice="16.28999089631971 0.0 0.0 0.0 16.28999089631971 0.0 0.0 0.0 34.24959146834617" Properties=species:S:1:pos:R:3:initial_magmoms:R:1 pbc="T T T"
Si      -2.04493257      -0.56298240       1.07406779       0.00000000
Si       1.43664768       1.67265720       0.90980666       0.00000000
Si      -0.74588652       0.90855846      -2.10621405       0.00000000
Si       1.31108436      -2.00417499       0.35763443       0.00000000
Si       1.70727345      -1.72480149       2.72935147       0.00000000
Si       2.56463244       0.46674108       2.59985369       0.00000000
Si      -3.27899781      -1.51537725      -0.72191329       0.00000000
Si       0.83645892       2.54630619      -2.67122988       0.00000000
Si      -0.86685606      -1.00796004      -3.60117531       0.00000000
Si       3.44601918      -1.67376492      -0.55295996       0.00000000
