10
Lattice="16.28999089631971 0.0 0.0 0.0 16.28999089631971 0.0 0.0 0.0 34.24959146834617" Properties=species:S:1:pos:R:3:initial_magmoms:R:1 pbc="T T T"
Si       2.06031033       0.18702549      -1.04129091       0.00000000
Si      -1.05976224      -1.46295603       1.65701812       0.00000000
Si      -1.96524189       0.20108376      -1.49667373       0.00000000
Si       1.43479062       1.16545176       1.76947329       0.00000000
Si       1.89980496       1.85394861      -2.67451784       0.00000000
Si      -3.78434619      -0.31627035      -0.05253890       0.00000000
Si      -2.70270648      -2.65241925       0.37308101       0.00000000
Si       2.56301973       2.83032234       0.57878284       0.00000000
Si       2.97396756      -1.95494661      -1.71501500       0.00000000
Si       0.10523340       2.45480526       3.17980718       0.00000000
