10
Lattice="16.28999089631971 0.0 0.0 0.0 16.28999089631971 0.0 0.0 0.0 34.24959146834617" Properties=species:S:1:pos:R:3:initial_magmoms:R:1 pbc="T T T"
Si      -1.36651923      -1.75378140       0.46404797       0.00000000
Si       0.33651882       0.97171479       2.10426183       0.00000000
Si      -1.18294722       1.02157848      -1.74457242       0.00000000
Si       2.07128979      -0.95509899      -0.54720603       0.00000000
Si       2.91372714       1.21279050      -0.04342851       0.00000000
Si       1.62955386       2.89668780      -1.19568816       0.00000000
Si      -0.71964333       3.29279544      -1.34371497       0.00000000
Si      -0.81896346      -0.40158108       3.56343224       0.00000000
Si      -1.05122628      -3.30431247      -1.26285164       0.00000000
Si       2.62620864       1.19270493       2.30294382       0.00000000
