10
Lattice="16.28999089631971 0.0 0.0 0.0 16.28999089631971 0.0 0.0 0.0 34.24959146834617" Properties=species:S:1:pos:R:3:initial_magmoms:R:1 pbc="T T T"
Si       1.18294722      -1.02157848       1.74457242       0.00000000
Si       0.46330389       2.27121696       0.40085744       0.00000000
Si      -2.23682877      -0.79500087      -0.15837020       0.00000000
Si       1.10084562      -0.28453743      -2.28962072       0.00000000
Si       2.81250108       1.87510932       0.54888426       0.00000000
Si      -0.18357201      -2.77535988       2.20862039       0.00000000
Si       2.96675109       1.12951602      -1.75385406       0.00000000
Si      -0.59727285       2.64310137       2.49573488       0.00000000
Si      -3.52862577       0.96006744       0.62762411       0.00000000
Si      -2.40950277      -2.42031933       1.58353075       0.00000000
