10
Lattice="16.28999089631971 0.0 0.0 0.0 16.28999089631971 0.0 0.0 0.0 34.24959146834617" Properties=species:S:1:pos:R:3:initial_magmoms:R:1 pbc="T T T"
Si       1.10568375      -2.05804602      -0.26238627       0.00000000
Si       1.86590547       1.41405345       0.53576666       0.00000000
Si      -1.20111057       0.37579401      -2.21379208       0.00000000
Si      -1.10084562       0.28453743       2.28962072       0.00000000
Si      -0.45913365      -3.59474688       0.46377398       0.00000000
Si      -3.30356313       1.00584234      -1.40889198       0.00000000
Si       1.39198050       3.43038078      -0.53357468       0.00000000
Si      -0.63754173       2.55575439       2.69047816       0.00000000
Si      -0.79184061       3.70561662       0.50346928       0.00000000
Si       2.67771762      -2.51467101       1.34645494       0.00000000
