10
Lattice="16.28999089631971 0.0 0.0 0.0 16.28999089631971 0.0 0.0 0.0 34.24959146834617" Properties=species:S:1:pos:R:3:initial_magmoms:R:1 pbc="T T T"
Si       1.36187658       1.34782176      -1.38481451       0.00000000
Si      -1.35058761      -1.36620972      -1.38577349       0.00000000
Si       1.37024964      -1.37661903       1.38738323       0.00000000
Si      -1.44036180       1.41128629       1.53451955       0.00000000
Si      -2.70417258       2.70637729      -0.01979627       0.00000000
Si      -2.70031185      -2.72332962      -0.00952139       0.00000000
Si       2.71319724       2.71572123      -0.00226047       0.00000000
Si       0.00835677       2.70490304      -2.74907925       0.00000000
Si      -2.70573642      -0.00928530      -2.74877100       0.00000000
Si       2.71456560      -2.74352922      -0.01924828       0.00000000
