10
Lattice="16.28999089631971 0.0 0.0 0.0 16.28999089631971 0.0 0.0 0.0 34.24959146834617" Properties=species:S:1:pos:R:3:initial_magmoms:R:1 pbc="T T T"
Si       0.75453651      -1.39434322      -1.80039928       0.00000000
Si       1.80701712       1.18634206       1.04204440       0.00000000
Si      -2.11608729       1.02202483      -0.61169805       0.00000000
Si      -0.63045558      -1.51883140       1.85379442       0.00000000
Si       0.92422944       2.28261019      -1.83653262       0.00000000
Si       1.20128976       3.45957898       0.98447081       0.00000000
Si      -0.46231020      -3.42117760      -1.68203263       0.00000000
Si      -2.06925354       1.53835267      -3.02999455       0.00000000
Si      -3.99368898      -0.28944886       0.23560307       0.00000000
Si       2.34882252       0.62391352       3.26206991       0.00000000
