10
Lattice="16.28999089631971 0.0 0.0 0.0 16.28999089631971 0.0 0.0 0.0 34.24959146834617" Properties=species:S:1:pos:R:3:initial_magmoms:R:1 pbc="T T T"
Si       1.69269390      -0.53626680      -1.56548120       0.00000000
Si      -1.62434106       1.44138807      -0.97375068       0.00000000
Si      -1.57033971      -1.82446534       0.06610175       0.00000000
Si       1.45852515       0.93463875       1.70638410       0.00000000
Si      -3.53924685       1.14507297       0.40212468       0.00000000
Si      -0.76698207       3.63293064      -1.10324846       0.00000000
Si      -0.50834574      -3.72378716       1.00197236       0.00000000
Si       0.54486792       3.07661085       2.38010819       0.00000000
Si      -3.46222773      -0.89244765       1.69641746       0.00000000
Si       3.17413908      -2.23031277      -0.84654763       0.00000000
