10
Lattice="16.28999089631971 0.0 0.0 0.0 16.28999089631971 0.0 0.0 0.0 34.24959146834617" Properties=species:S:1:pos:R:3:initial_magmoms:R:1 pbc="T T T"
Si       0.29110230      -1.31598765       1.93828821       0.00000000
Si      -1.74242727      -1.11335634      -1.22743754       0.00000000
Si       0.51838038       2.31016635       0.51305917       0.00000000
Si      -2.61847089       1.23009048      -0.36962180       0.00000000
Si      -1.05365349       2.76679134      -1.09578204       0.00000000
Si      -1.99617660      -1.18542330       2.50491377       0.00000000
Si       1.85414409       0.09441684       3.06787462       0.00000000
Si       1.75759326       0.35492652      -3.22655307       0.00000000
Si      -2.96763075      -2.21723190       0.63926898       0.00000000
Si      -3.12846192       0.78348384       1.93794572       0.00000000
