10
Lattice="16.28999089631971 0.0 0.0 0.0 16.28999089631971 0.0 0.0 0.0 34.24959146834617" Properties=species:S:1:pos:R:3:initial_magmoms:R:1 pbc="T T T"
Si      -0.37180296       2.13180714       0.80839356       0.00000000
Si       1.01384073      -1.71307269       1.27042081       0.00000000
Si      -1.23919659      -0.73860489      -1.89441446       0.00000000
Si       0.96840792       0.57710583      -2.16104768       0.00000000
Si      -2.90186802      -1.05308334       1.34220799       0.00000000
Si      -3.30004449      -0.27249912      -0.86740564       0.00000000
Si       3.22927163      -1.40778180       0.64968086       0.00000000
Si      -0.63346923      -3.01184181      -1.83684087       0.00000000
Si      -0.09166383      -3.57427035       0.38318464       0.00000000
Si      -2.17194570       0.68230665       2.78969928       0.00000000
