10
Lattice="16.28999089631971 0.0 0.0 0.0 16.28999089631971 0.0 0.0 0.0 34.24959146834617" Properties=species:S:1:pos:R:3:initial_magmoms:R:1 pbc="T T T"
Si       1.76084704      -0.73262646       1.35844231       0.00000000
Si       0.29336661      -1.31025357      -1.92287589       0.00000000
Si       0.94742640       1.81855044      -1.18555027       0.00000000
Si      -2.29698774       0.29853054       0.69468485       0.00000000
Si       1.40040538       0.43103340      -3.04499588       0.00000000
Si      -2.13648237      -1.36839258       2.32791178       0.00000000
Si       1.18558620      -2.95914366       1.44108662       0.00000000
Si      -1.83702330      -1.21718880      -2.86076723       0.00000000
Si      -3.44833236      -0.81207279      -1.15544486       0.00000000
Si       3.03867863       2.20180527      -0.19159232       0.00000000
