10
Lattice="16.28999089631971 0.0 0.0 0.0 16.28999089631971 0.0 0.0 0.0 34.24959146834617" Properties=species:S:1:pos:R:3:initial_magmoms:R:1 pbc="T T T"
Si      -1.37798806       1.39675347       1.27682548       0.00000000
Si      -1.35818894      -1.33263603      -1.36775820       0.00000000
Si       1.35694723       1.38091959      -1.36762120       0.00000000
Si       1.32897730      -1.33809318       1.54592467       0.00000000
Si       0.34079332       2.21835591       2.65270084       0.00000000
Si       2.18772094       0.65415753       2.82970283       0.00000000
Si       2.70802354      -2.68276752       0.02229650       0.00000000
Si      -2.74051624      -2.67348222       0.01024063       0.00000000
Si      -0.00072653      -2.69096139      -2.72743349       0.00000000
Si       2.71346440       0.02308293      -2.72626900       0.00000000
