10
Lattice="16.28999089631971 0.0 0.0 0.0 16.28999089631971 0.0 0.0 0.0 34.24959146834617" Properties=species:S:1:pos:R:3:initial_magmoms:R:1 pbc="T T T"
Si      -1.72832013      -1.10617245      -1.14391233       0.00000000
Si      -1.43145117       1.23808887       1.44939557       0.00000000
Si       1.26602622      -1.48305789       1.43121930       0.00000000
Si       1.37829219       1.36884870      -1.57819607       0.00000000
Si       2.57752339       2.61231327      -0.00525389       0.00000000
Si      -2.68674228       2.52522693      -0.08665151       0.00000000
Si      -3.43722258       0.58021722      -1.35214864       0.00000000
Si      -0.09052353       2.59033806       2.82227751       0.00000000
Si       2.62642923      -0.12753441       2.81505085       0.00000000
Si       2.67181968      -2.83778316      -0.00857268       0.00000000
