10
Lattice="16.28999089631971 0.0 0.0 0.0 16.28999089631971 0.0 0.0 0.0 34.24959146834617" Properties=species:S:1:pos:R:3:initial_magmoms:R:1 pbc="T T T"
Si       1.34092764       1.35224919       1.37288194       0.00000000
Si      -1.25529111       1.28713806      -1.53604709       0.00000000
Si      -1.37458278      -1.36192545       1.36527853       0.00000000
Si       1.43145117      -1.23808887      -1.44939557       0.00000000
Si      -2.00577141      -0.65787165      -2.80154421       0.00000000
Si      -0.29686896      -2.34426132      -2.59330791       0.00000000
Si       2.69879825       2.69413794       0.01181269       0.00000000
Si       2.69747739      -2.72114676      -0.01817627       0.00000000
Si      -2.73127914       2.68951158      -0.02834840       0.00000000
Si       2.69928620      -0.00472410       2.72824178       0.00000000
