10
Lattice="16.28999089631971 0.0 0.0 0.0 16.28999089631971 0.0 0.0 0.0 34.24959146834617" Properties=species:S:1:pos:R:3:initial_magmoms:R:1 pbc="T T T"
Si       1.34361549      -1.37285604       1.28473714       0.00000000
Si       1.36073628       1.32796080      -1.36255226       0.00000000
Si      -1.35107631      -1.39176873      -1.35758607       0.00000000
Si      -1.37166687       1.33100703       1.47454849       0.00000000
Si      -0.36279459      -2.14529526       2.74678452       0.00000000
Si      -2.22700590      -0.43417737       2.81473575       0.00000000
Si       2.70805353       2.67071292       0.01801530       0.00000000
Si      -2.71883358       2.66642865       0.01041188       0.00000000
Si       0.00601101       2.68335396      -2.71887109       0.00000000
Si      -2.71143792      -0.03034827      -2.71794635       0.00000000
