10
Lattice="16.28999089631971 0.0 0.0 0.0 16.28999089631971 0.0 0.0 0.0 34.24959146834617" Properties=species:S:1:pos:R:3:initial_magmoms:R:1 pbc="T T T"
Si      -1.43106021       1.77194475      -0.48175502       0.00000000
Si       2.09125223       0.38325483       0.99395795       0.00000000
Si       0.45297898      -1.38751704      -1.85944561       0.00000000
Si      -0.94742640      -1.81855044       1.18555027       0.00000000
Si      -0.65405979      -3.12880401      -0.73732562       0.00000000
Si       2.83034582      -1.74889440       1.46591758       0.00000000
Si       0.13326849       3.53416437      -0.93189766       0.00000000
Si       0.81342064      -2.55117690       2.54399258       0.00000000
Si      -2.73823497       1.18408752      -2.36904557       0.00000000
Si      -2.64494214       2.45107485       1.42704428       0.00000000
