10
Lattice="16.28999089631971 0.0 0.0 0.0 16.28999089631971 0.0 0.0 0.0 34.24959146834617" Properties=species:S:1:pos:R:3:initial_magmoms:R:1 pbc="T T T"
Si       0.44023464      -0.52427736       2.18783088       0.00000000
Si      -1.78269454       1.14461685      -1.24699407       0.00000000
Si       1.07904699      -2.12832108      -1.09026785       0.00000000
Si       0.19390704       2.62187550       0.54724028       0.00000000
Si       0.74698512       1.66889421       2.63403480       0.00000000
Si      -0.07628446       1.91705607      -2.70904145       0.00000000
Si       1.64249692       2.73865851      -1.33316609       0.00000000
Si       2.63068090      -0.81779058      -2.43994226       0.00000000
Si      -2.87668207      -0.78380964      -2.36983331       0.00000000
Si       3.48942454       1.17446013      -1.15616411       0.00000000
