10
Lattice="16.28999089631971 0.0 0.0 0.0 16.28999089631971 0.0 0.0 0.0 34.24959146834617" Properties=species:S:1:pos:R:3:initial_magmoms:R:1 pbc="T T T"
Si      -1.27068516       1.42665215       1.33268660       0.00000000
Si       1.33809318       1.35561684      -1.34433147       0.00000000
Si      -1.37945349      -1.35466011      -1.34015301       0.00000000
Si       1.33392294      -1.33711578       1.41255669       0.00000000
Si      -2.27616912      -0.30828825       2.48491200       0.00000000
Si      -0.54061623      -2.01432366       2.68492972       0.00000000
Si       2.69113311       0.00379557      -2.70253402       0.00000000
Si       2.81495665       0.14704983       2.57711195       0.00000000
Si       2.68067004      -2.72487717       0.03520860       0.00000000
Si      -0.02137248      -2.71223613      -2.70167778       0.00000000
