10
Lattice="16.28999089631971 0.0 0.0 0.0 16.28999089631971 0.0 0.0 0.0 34.24959146834617" Properties=species:S:1:pos:R:3:initial_magmoms:R:1 pbc="T T T"
Si      -0.42503868       0.08122194      -2.31582167       0.00000000
Si       0.30869550      -2.29123737       0.55665892       0.00000000
Si      -2.32562556       0.43862454       0.69215038       0.00000000
Si       1.58809778       1.88077824       0.71694710       0.00000000
Si       1.75197388      -1.70479737       2.30174508       0.00000000
Si       0.98082090       0.11049507       3.59305815       0.00000000
Si      -2.79955053       2.45495187      -0.37719096       0.00000000
Si      -2.16059157       1.78725735      -2.51583940       0.00000000
Si       0.94934862       2.39102991       2.89053014       0.00000000
Si       3.66517574       0.47218194      -1.23493821       0.00000000
