10
Lattice="16.28999089631971 0.0 0.0 0.0 16.28999089631971 0.0 0.0 0.0 34.24959146834617" Properties=species:S:1:pos:R:3:initial_magmoms:R:1 pbc="T T T"
Si       0.39943080       2.05899084       0.94117930       0.00000000
Si      -2.28968982      -0.22099014      -0.19868199       0.00000000
Si       1.27597941      -1.26822537       1.49756422       0.00000000
Si       0.28751850       0.02008557      -2.34637232       0.00000000
Si       2.76506460       1.84124241       0.87795452       0.00000000
Si       1.62782712      -3.17347119       0.27992207       0.00000000
Si      -2.98525653       1.99998846       0.23005463       0.00000000
Si      -0.55491885      -2.14780392      -2.85014985       0.00000000
Si      -2.62620864      -1.19270493      -2.30294382       0.00000000
Si      -0.21958920      -2.06451315       3.15815659       0.00000000
