10
Lattice="16.28999089631971 0.0 0.0 0.0 16.28999089631971 0.0 0.0 0.0 34.24959146834617" Properties=species:S:1:pos:R:3:initial_magmoms:R:1 pbc="T T T"
Si       0.55409036       2.11667373       0.82623761       0.00000000
Si      -2.36563380       0.21774843       0.06322478       0.00000000
Si       0.41796135      -1.85777676       1.43444219       0.00000000
Si       1.04311127      -1.04756103      -1.91284075       0.00000000
Si      -2.76506460      -1.84124241      -0.87795452       0.00000000
Si      -1.48908519      -3.10946778       0.61960971       0.00000000
Si       0.54508525       1.72644678       3.09452082       0.00000000
Si       2.83355495       2.41868448       0.42404443       0.00000000
Si       3.79272644       0.50873670      -0.55648767       0.00000000
Si       2.63100509      -2.75889069       0.94159029       0.00000000
