10
Lattice="16.28999089631971 0.0 0.0 0.0 16.28999089631971 0.0 0.0 0.0 34.24959146834617" Properties=species:S:1:pos:R:3:initial_magmoms:R:1 pbc="T T T"
Si       1.48755393       1.02793158       1.53450726       0.00000000
Si      -1.12454757      -1.71812259       1.35742308       0.00000000
Si      -1.84899645       1.67391153      -0.18850986       0.00000000
Si       1.34330598      -0.61667424      -2.07357418       0.00000000
Si      -1.72204848       1.49677407      -2.69804733       0.00000000
Si       0.61307415       1.31634603      -3.36831220       0.00000000
Si       0.11657124       2.42615599       2.88576400       0.00000000
Si       3.27023120       1.94940801       0.26016796       0.00000000
Si      -2.60053560      -0.31574907       2.86512176       0.00000000
Si       2.82954179      -0.31112271       2.90528285       0.00000000
