10
Lattice="16.28999089631971 0.0 0.0 0.0 16.28999089631971 0.0 0.0 0.0 34.24959146834617" Properties=species:S:1:pos:R:3:initial_magmoms:R:1 pbc="T T T"
Si      -2.20949578       0.71713467      -0.04106528       0.00000000
Si       1.33160976       1.10913723      -1.62418503       0.00000000
Si       0.43958565       0.60445674       2.30475905       0.00000000
Si       0.60791022      -2.04457419      -1.23185574       0.00000000
Si      -2.51624625      -1.47603690      -0.48726921       0.00000000
Si       3.51494217       0.21678732      -1.06889610       0.00000000
Si       1.71931176      -1.22978097       3.04698236       0.00000000
Si       0.43738650      -3.03277446       2.24650046       0.00000000
Si      -2.76257386       1.67011596      -2.12785981       0.00000000
Si       0.53294364       0.22270059      -3.83126419       0.00000000
