10
Lattice="16.28999089631971 0.0 0.0 0.0 16.28999089631971 0.0 0.0 0.0 34.24959146834617" Properties=species:S:1:pos:R:3:initial_magmoms:R:1 pbc="T T T"
Si      -2.26384183       0.14600727       0.52134757       0.00000000
Si       0.98824914      -1.07649207       1.84204681       0.00000000
Si       0.27582228      -1.27808082      -1.96212594       0.00000000
Si       1.06233606       2.16182961       0.03729783       0.00000000
Si       3.23651349      -0.27282492       1.57709182       0.00000000
Si       3.36191391       1.45955142      -0.08250731       0.00000000
Si       2.51673984      -1.43009910      -2.49165917       0.00000000
Si       0.11352501      -0.21537009       3.84671077       0.00000000
Si      -0.10005318      -3.59230338      -1.43444219       0.00000000
Si      -3.70112777      -0.05271444      -1.27572950       0.00000000
