10
Lattice="16.28999089631971 0.0 0.0 0.0 16.28999089631971 0.0 0.0 0.0 34.24959146834617" Properties=species:S:1:pos:R:3:initial_magmoms:R:1 pbc="T T T"
Si      -1.43728594      -0.19872171      -1.79707707       0.00000000
Si       2.26384183      -0.14600727      -0.52134757       0.00000000
Si      -1.10703877      -1.74128697       1.12211999       0.00000000
Si      -0.45297898       1.38751704       1.85944561       0.00000000
Si      -1.40040538      -0.43103340       3.04499588       0.00000000
Si      -3.23742868      -1.64822220       0.18422866       0.00000000
Si      -1.06548298      -2.33052885      -2.60547063       0.00000000
Si       3.25209097      -1.22249934       1.32069923       0.00000000
Si       1.63827325       1.77077187       2.85340356       0.00000000
Si       2.53966411      -1.42408809      -2.48347351       0.00000000
