10
Lattice="16.28999089631971 0.0 0.0 0.0 16.28999089631971 0.0 0.0 0.0 34.24959146834617" Properties=species:S:1:pos:R:3:initial_magmoms:R:1 pbc="T T T"
Si      -1.34731725      -1.34275212      -1.38056755       0.00000000
Si      -1.34674710       1.38776139       1.37734809       0.00000000
Si       1.27425593      -1.43705493       1.40008983       0.00000000
Si       1.37106740       1.37314926      -1.37481362       0.00000000
Si       2.57082590      -0.08762391       2.78117113       0.00000000
Si      -2.70805353      -2.67071292      -0.01801530       0.00000000
Si      -2.68067004       2.72487717      -0.03520860       0.00000000
Si       2.72719361      -2.69384472      -0.00986389       0.00000000
Si       0.13428661       2.87192700       2.54190335       0.00000000
Si       0.01133947      -2.70187569      -2.73661239       0.00000000
