10
Lattice="16.28999089631971 0.0 0.0 0.0 16.28999089631971 0.0 0.0 0.0 34.24959146834617" Properties=species:S:1:pos:R:3:initial_magmoms:R:1 pbc="T T T"
Si       2.33274429       0.34168275       0.04212702       0.00000000
Si      -0.12429270       1.34759025      -2.06395003       0.00000000
Si       0.30481848      -2.46451410       0.18155719       0.00000000
Si      -1.58332284       1.10552085       1.63343243       0.00000000
Si      -1.82619045       2.53672767      -1.11451658       0.00000000
Si      -2.34077526      -1.78675236      -2.20252396       0.00000000
Si       2.95301862      -1.18229562      -1.93945270       0.00000000
Si      -1.42086267      -0.00184077      -3.44503133       0.00000000
Si      -0.19807011       1.47492918       3.51490054       0.00000000
Si      -1.63540197       3.36263067       1.01628870       0.00000000
