10
Lattice="16.28999089631971 0.0 0.0 0.0 16.28999089631971 0.0 0.0 0.0 34.24959146834617" Properties=species:S:1:pos:R:3:initial_magmoms:R:1 pbc="T T T"
Si      -1.35340578       1.35726651      -1.36169602       0.00000000
Si      -1.34853996      -1.35048173       1.37748509       0.00000000
Si       1.36094805      -1.35927018      -1.36070278       0.00000000
Si       1.35534429       1.36546038       1.38803397       0.00000000
Si       0.25414029      -2.57783581       2.72585801       0.00000000
Si      -2.71086818       2.71559187      -0.00202073       0.00000000
Si      -2.71123474      -0.00104256      -2.71842584       0.00000000
Si      -2.70880613      -2.72094656      -0.00369896       0.00000000
Si       0.00273672       2.71450044      -2.71832309       0.00000000
Si       2.71904535       2.71474479       0.00095899       0.00000000
