10
Lattice="16.28999089631971 0.0 0.0 0.0 16.28999089631971 0.0 0.0 0.0 34.24959146834617" Properties=species:S:1:pos:R:3:initial_magmoms:R:1 pbc="T T T"
Si       1.36249560       1.18172547       1.56362286       0.00000000
Si       1.37775933      -0.87360012      -1.77084187       0.00000000
Si      -0.89568936       1.78386903      -1.46386261       0.00000000
Si      -1.34124530      -1.55929509       1.43478267       0.00000000
Si      -0.32983992      -1.03293261      -3.36817521       0.00000000
Si       2.93254209       2.25838044      -0.01496708       0.00000000
Si      -2.63477278       2.64733677      -0.13484072       0.00000000
Si      -2.34676509      -1.83521511      -2.29010021       0.00000000
Si      -0.03880278       2.52819171       2.89254885       0.00000000
Si       2.06516475      -3.11733585      -1.23000627       0.00000000
