10
Lattice="16.28999089631971 0.0 0.0 0.0 16.28999089631971 0.0 0.0 0.0 34.24959146834617" Properties=species:S:1:pos:R:3:initial_magmoms:R:1 pbc="T T T"
Si       1.47230649       1.28638872      -1.19606490       0.00000000
Si       0.73909359      -2.13214923       0.47195963       0.00000000
Si      -2.09125223      -0.38325483      -0.99395795       0.00000000
Si       0.17324415       0.68465241       2.37627223       0.00000000
Si       0.11243358       3.19430610      -0.66834690       0.00000000
Si      -1.27783158      -2.93443173       1.55003463       0.00000000
Si       1.61381772      -2.99327121      -1.53270432       0.00000000
Si      -1.63827325      -1.77077187      -2.85340356       0.00000000
Si       1.68790464       0.24505047      -3.33745331       0.00000000
Si       3.52582389       1.28117592       0.00767191       0.00000000
