10
Lattice="16.28999089631971 0.0 0.0 0.0 16.28999089631971 0.0 0.0 0.0 34.24959146834617" Properties=species:S:1:pos:R:3:initial_magmoms:R:1 pbc="T T T"
Si      -1.27259109       1.39536882       1.42408853       0.00000000
Si       1.74232953       1.14261318      -1.13963387       0.00000000
Si       1.41568245      -1.33029027       1.40097690       0.00000000
Si      -1.77513759      -0.85385664      -1.46013081       0.00000000
Si       0.78172452       1.60802730      -3.21768383       0.00000000
Si      -2.62321291       2.68947804       0.01697753       0.00000000
Si      -2.69402554      -2.65165362      -0.04038714       0.00000000
Si       2.74580982      -2.62643670      -0.14627666       0.00000000
Si      -2.64593583       0.04116483       2.78036284       0.00000000
Si       0.07025877      -2.67336819       2.78491804       0.00000000
