10
Lattice="16.28999089631971 0.0 0.0 0.0 16.28999089631971 0.0 0.0 0.0 34.24959146834617" Properties=species:S:1:pos:R:3:initial_magmoms:R:1 pbc="T T T"
Si       1.34853996       1.35048173      -1.37748509       0.00000000
Si      -1.36026617      -1.37046483      -1.38118405       0.00000000
Si       1.60268025      -1.22735409       1.34837292       0.00000000
Si      -1.50975950       1.31221651       1.38686948       0.00000000
Si       0.11659730      -2.57903184       2.54025937       0.00000000
Si       2.70388425       2.71594210       0.01054888       0.00000000
Si      -2.69835935      -2.72608167      -0.03685258       0.00000000
Si      -0.00486582       2.70774823      -2.73918111       0.00000000
Si       2.70948801      -0.00878845      -2.73818787       0.00000000
Si      -2.71927571      -0.00762372      -2.73774262       0.00000000
