10
Lattice="16.28999089631971 0.0 0.0 0.0 16.28999089631971 0.0 0.0 0.0 34.279985188174585" Properties=species:S:1:pos:R:3:initial_magmoms:R:1 pbc="T T T"
Si      -1.23142952      -1.56660183      -1.14165715       0.00000000
Si       1.28649786      -1.37588987       1.32514156       0.00000000
Si      -1.44508168       1.37117654       1.27864416       0.00000000
Si       1.78676376       0.60626330      -1.44499272       0.00000000
Si       0.68505477       0.03388972      -3.55269879       0.00000000
Si       2.55016203       2.58385301      -0.14364693       0.00000000
Si      -1.62847450      -0.67703195      -3.23769983       0.00000000
Si       2.63897511      -0.00140746       2.66968560       0.00000000
Si       2.66984466      -2.68041429      -0.09198011       0.00000000
Si      -0.07958642       2.71454768       2.66303528       0.00000000
