10
Lattice="16.28999089631971 0.0 0.0 0.0 16.28999089631971 0.0 0.0 0.0 34.279985188174585" Properties=species:S:1:pos:R:3:initial_magmoms:R:1 pbc="T T T"
Si       0.19748367       2.07454779       1.01290557       0.00000000
Si      -0.88410717       0.47359917      -2.11007139       0.00000000
Si       2.10227337      -0.96723504      -0.36340233       0.00000000
Si      -1.17312272      -1.39838247       1.50345243       0.00000000
Si       2.27942712      -2.22272163       1.66521977       0.00000000
Si      -0.09689292      -1.30652316      -3.39368615       0.00000000
Si      -1.88659051       3.05433820       0.66654040       0.00000000
Si       0.61341624       1.63924641       3.27418606       0.00000000
Si       1.96794603      -1.95462081      -2.46942867       0.00000000
Si      -0.19018575       2.61154668      -2.79930515       0.00000000
