10
Lattice="16.28999089631971 0.0 0.0 0.0 16.28999089631971 0.0 0.0 0.0 34.279985188174585" Properties=species:S:1:pos:R:3:initial_magmoms:R:1 pbc="T T T"
Si      -2.10581712      -0.55068345      -0.88641235       0.00000000
Si       1.17312272       1.39838247      -1.50345243       0.00000000
Si       1.24422857      -1.90589742       0.65008600       0.00000000
Si       0.19844315       1.31043276       2.29165257       0.00000000
Si       3.45254984      -0.82433916       0.16176734       0.00000000
Si      -2.02161411       2.16417537       1.97346557       0.00000000
Si       1.37060639       3.47293026      -0.49054686       0.00000000
Si      -3.40211016      -1.31574330       0.97478620       0.00000000
Si      -2.98728531       1.49332059      -1.77447014       0.00000000
Si       3.27539609       0.43114743      -1.86685476       0.00000000
