10
Lattice="16.28999089631971 0.0 0.0 0.0 16.28999089631971 0.0 0.0 0.0 34.279985188174585" Properties=species:S:1:pos:R:3:initial_magmoms:R:1 pbc="T T T"
Si      -2.14303095      -0.26677255      -1.00865485       0.00000000
Si       0.56710377      -2.04498895      -1.12479550       0.00000000
Si      -0.11468160       0.10413513       2.46480087       0.00000000
Si       1.25429742       0.83577279      -2.16094291       0.00000000
Si      -1.16947539       1.30023327      -2.48060395       0.00000000
Si       2.45128662       2.05765473      -0.59839176       0.00000000
Si      -0.61594119       3.21272976       0.68251489       0.00000000
Si      -1.86382035      -2.61039856      -1.11019222       0.00000000
Si       1.57380948      -3.06137092       0.68505161       0.00000000
Si       2.50256754      -1.22952784      -2.27571237       0.00000000
