10
Lattice="16.28999089631971 0.0 0.0 0.0 16.28999089631971 0.0 0.0 0.0 34.279985188174585" Properties=species:S:1:pos:R:3:initial_magmoms:R:1 pbc="T T T"
Si      -1.19698920      -1.22188195      -1.56255116       0.00000000
Si      -1.65628575       1.46424294      -0.91047692       0.00000000
Si       2.31855570      -0.59984341      -0.10969601       0.00000000
Si       2.29392522       0.33713784       2.07092362       0.00000000
Si      -0.04810437       3.10513464      -0.82463978       0.00000000
Si      -2.45128662      -2.05765473       0.59839176       0.00000000
Si       0.33050781       0.00651600       3.37335811       0.00000000
Si       1.80970497      -2.88881063      -0.02272764       0.00000000
Si      -3.06722781       1.15507503       1.28090664       0.00000000
Si       1.83653460       2.57082264       1.66093477       0.00000000
