10
Lattice="16.28999089631971 0.0 0.0 0.0 16.28999089631971 0.0 0.0 0.0 34.279985188174585" Properties=species:S:1:pos:R:3:initial_magmoms:R:1 pbc="T T T"
Si       1.35681039      -1.35759231      -1.35865369       0.00000000
Si      -1.35772263       1.35860229      -1.36019629       0.00000000
Si       1.35501849       1.37072205       1.36365857       0.00000000
Si      -1.35949824      -1.35879777       1.37620505       0.00000000
Si      -2.71560816      -2.71404432      -0.00167972       0.00000000
Si      -2.71456560       2.71624347      -0.00089128       0.00000000
Si       2.71252935       2.71847520      -0.00167972       0.00000000
Si      -0.00004887      -2.71376739      -2.71830150       0.00000000
Si      -2.71464705       0.00138465      -2.71768446       0.00000000
Si       2.71520091       0.00151497      -2.71813010       0.00000000
