10
Lattice="16.28999089631971 0.0 0.0 0.0 16.28999089631971 0.0 0.0 0.0 34.279985188174585" Properties=species:S:1:pos:R:3:initial_magmoms:R:1 pbc="T T T"
Si      -1.60818138      -1.64089170      -0.08583713       0.00000000
Si       2.35206423       0.16079859       0.26789823       0.00000000
Si      -0.83056194       2.38536099      -0.33717812       0.00000000
Si      -2.19423042       0.18827982       1.76531738       0.00000000
Si      -0.20030184       0.50639094       2.97440742       0.00000000
Si       0.14229315       2.49614928       1.77183058       0.00000000
Si       1.88463897      -0.53431200       2.48557456       0.00000000
Si       0.04810437      -3.10513464       0.82463978       0.00000000
Si      -0.54705078      -1.12673043      -2.99747786       0.00000000
Si      -2.62003473      -0.49989123      -2.06074246       0.00000000
