10
Lattice="16.28999089631971 0.0 0.0 0.0 16.28999089631971 0.0 0.0 0.0 34.279985188174585" Properties=species:S:1:pos:R:3:initial_magmoms:R:1 pbc="T T T"
Si      -0.40294944       2.26561320       0.46209446       0.00000000
Si      -0.61123338       0.14043609      -2.27379269       0.00000000
Si       2.29574970      -0.57664971       0.22131171       0.00000000
Si      -1.03232988      -1.59954768       1.42433418       0.00000000
Si       0.85159233      -1.51332471      -3.20593457       0.00000000
Si       0.75807144       3.34091610      -1.28543160       0.00000000
Si       2.84552091      -1.19521359      -1.99684453       0.00000000
Si      -1.05073758      -0.48423654       3.56326933       0.00000000
Si       2.31394563      -2.36522655       1.76291778       0.00000000
Si       0.34938792      -3.56249268       1.34048529       0.00000000
