10
Lattice="16.28999089631971 0.0 0.0 0.0 16.28999089631971 0.0 0.0 0.0 34.279985188174585" Properties=species:S:1:pos:R:3:initial_magmoms:R:1 pbc="T T T"
Si       0.01819593      -1.78857684       1.54160608       0.00000000
Si       0.54977121      -0.61856388      -2.21815624       0.00000000
Si       1.67808177       1.44065502       0.84582483       0.00000000
Si      -2.29574970       0.57664971      -0.22131171       0.00000000
Si      -3.32807958      -1.02289797       1.20302247       0.00000000
Si       3.65251122       0.09304848       0.73242657       0.00000000
Si      -1.94636178      -2.98584297       1.11917358       0.00000000
Si       0.89236620       1.37119446      -3.42073307       0.00000000
Si      -1.44415737      -0.93667500      -3.42724627       0.00000000
Si       1.77287328      -3.28911390       1.10381614       0.00000000
