10
Lattice="16.28999089631971 0.0 0.0 0.0 16.28999089631971 0.0 0.0 0.0 34.279985188174585" Properties=species:S:1:pos:R:3:initial_magmoms:R:1 pbc="T T T"
Si      -0.12880503      -1.23455394      -1.99303945       0.00000000
Si       2.11546827       0.56997081       0.86625571       0.00000000
Si      -1.90689111      -0.16754265       1.41041650       0.00000000
Si      -1.08466965       2.17557837      -0.15439714       0.00000000
Si      -0.02943603       0.68525514      -3.32286366       0.00000000
Si       2.35677204       2.46483990      -0.51522847       0.00000000
Si      -3.14046765      -1.24916607      -0.86652995       0.00000000
Si       2.07044271      -1.78932618      -2.49973220       0.00000000
Si      -1.39369095       2.39699205      -2.52341968       0.00000000
Si       1.95854670       1.80131562      -2.74181759       0.00000000
