10
Lattice="16.28999089631971 0.0 0.0 0.0 16.28999089631971 0.0 0.0 0.0 34.279985188174585" Properties=species:S:1:pos:R:3:initial_magmoms:R:1 pbc="T T T"
Si      -1.35705474      -1.35692442       1.35741961       0.00000000
Si       1.35850455       1.35775521       1.35769385       0.00000000
Si      -1.35780408       1.35656604      -1.36009345       0.00000000
Si       1.35723393      -1.35702216      -1.36040197       0.00000000
Si       2.70593190       0.01273878      -2.71323492       0.00000000
Si       2.71490769       2.71423980       0.00085700       0.00000000
Si       0.00060273      -2.71454931       2.71501062       0.00000000
Si      -2.71437012       0.00032580       2.71528486       0.00000000
Si      -2.71497285      -2.71482624       0.00030852       0.00000000
Si       2.71554300       0.00055386       2.71477066       0.00000000
