10
Lattice="16.28999089631971 0.0 0.0 0.0 16.28999089631971 0.0 0.0 0.0 34.279985188174585" Properties=species:S:1:pos:R:3:initial_magmoms:R:1 pbc="T T T"
Si       1.35542574      -1.35495333       1.35923645       0.00000000
Si      -1.35682668      -1.35716877      -1.35711109       0.00000000
Si       1.35811359       1.35793440      -1.35735105       0.00000000
Si      -1.35630540       1.36218609       1.35961353       0.00000000
Si      -0.00208512      -2.70270648       2.72457475       0.00000000
Si       0.00063531      -2.71441899      -2.71442786       0.00000000
Si      -2.71467963       2.71445157      -0.00058276       0.00000000
Si      -2.71448415       0.00045612      -2.71470210       0.00000000
Si       2.71466334       2.71464705       0.00058276       0.00000000
Si       0.00107514       2.71513575      -2.71442786       0.00000000
