10
Lattice="16.28999089631971 0.0 0.0 0.0 16.28999089631971 0.0 0.0 0.0 34.279985188174585" Properties=species:S:1:pos:R:3:initial_magmoms:R:1 pbc="T T T"
Si       0.30841857      -1.97573265      -1.14841443       0.00000000
Si      -2.12162589       0.57063870       0.76557534       0.00000000
Si       1.45182996       0.05905125       1.84803503       0.00000000
Si       0.05517423       1.56519207      -1.78050343       0.00000000
Si       2.24863902       1.41229413      -2.35243102       0.00000000
Si      -3.40952958      -0.34479414      -0.96487928       0.00000000
Si       1.22622975       2.27481705       2.59815009       0.00000000
Si      -2.06472492       2.92612383       0.94482548       0.00000000
Si      -0.66324735       3.59394867      -0.81216186       0.00000000
Si       2.42233929      -2.01590379      -2.14743659       0.00000000
