10
Lattice="16.28999089631971 0.0 0.0 0.0 16.28999089631971 0.0 0.0 0.0 34.279985188174585" Properties=species:S:1:pos:R:3:initial_magmoms:R:1 pbc="T T T"
Si       1.83154986       1.19487150       0.84575627       0.00000000
Si      -0.69392142      -2.13794751       0.68923377       0.00000000
Si      -1.74897748       1.16787082       1.15640167       0.00000000
Si       0.20051361      -0.61931226      -2.33851334       0.00000000
Si      -3.63603293       0.31810460      -0.04192445       0.00000000
Si      -3.05296496      -2.02921176       0.42466069       0.00000000
Si       3.67385112      -0.19205584       0.58197163       0.00000000
Si       2.17258101       2.99150375      -0.73033549       0.00000000
Si       0.19018575      -2.61154668       2.79930515       0.00000000
Si       0.38766942      -0.53699889       3.81221072       0.00000000
