10
Lattice="16.28999089631971 0.0 0.0 0.0 16.28999089631971 0.0 0.0 0.0 34.279985188174585" Properties=species:S:1:pos:R:3:initial_magmoms:R:1 pbc="T T T"
Si      -1.38334680       1.30452441       1.41712167       0.00000000
Si       1.33623612      -1.39735620       1.38456595       0.00000000
Si       0.98862381       1.62941281      -1.43274790       0.00000000
Si      -1.37059173      -1.52520012      -1.41773326       0.00000000
Si      -0.88308090       3.28667759      -1.35301261       0.00000000
Si       2.61338841       2.64136390       0.03692299       0.00000000
Si      -2.66984466       2.68041429       0.09198011       0.00000000
Si       2.68444539      -0.03995937       2.75587239       0.00000000
Si      -0.03086955       2.67900683       2.76166571       0.00000000
Si       2.73694806      -2.72735325      -0.03341958       0.00000000
