10
Lattice="16.28999089631971 0.0 0.0 0.0 16.28999089631971 0.0 0.0 0.0 34.279985188174585" Properties=species:S:1:pos:R:3:initial_magmoms:R:1 pbc="T T T"
Si       1.31878953       1.22205951      -1.48441130       0.00000000
Si       1.29459888      -1.37002158       1.43594482       0.00000000
Si      -1.08380628      -1.58011371      -1.43271705       0.00000000
Si      -1.40071194       1.32999705       1.41798552       0.00000000
Si       2.26650915      -0.73598220      -2.60667008       0.00000000
Si       2.73313620       2.64683178      -0.14240257       0.00000000
Si       2.61878040      -2.81064402       0.15455140       0.00000000
Si       2.66439240      -0.02357163       2.79268569       0.00000000
Si      -2.73694806       2.72735325       0.03341958       0.00000000
Si      -0.05250267       2.68739388       2.78929197       0.00000000
