10
Lattice="16.28999089631971 0.0 0.0 0.0 16.28999089631971 0.0 0.0 0.0 34.279985188174585" Properties=species:S:1:pos:R:3:initial_magmoms:R:1 pbc="T T T"
Si       1.35638685       1.35853580      -1.35649405       0.00000000
Si      -1.35770634       1.35721426       1.35669973       0.00000000
Si       1.35725022      -1.35760860       1.35711109       0.00000000
Si      -1.35889551      -1.35672894      -1.35700825       0.00000000
Si      -0.00110772       2.71369313       2.71435930       0.00000000
Si       0.00026064       2.71611545      -2.71209682       0.00000000
Si       2.71428867       2.71498818       0.00023996       0.00000000
Si      -2.71526444       0.00087966       2.71415362       0.00000000
Si      -0.00050499      -2.71593396       2.71353658       0.00000000
Si      -2.71458515       0.00117288      -2.71507918       0.00000000
