10
Lattice="16.28999089631971 0.0 0.0 0.0 16.28999089631971 0.0 0.0 0.0 34.279985188174585" Properties=species:S:1:pos:R:3:initial_magmoms:R:1 pbc="T T T"
Si      -1.33739271       1.31869179       1.38690042       0.00000000
Si      -1.37212299      -1.34322453      -1.35447153       0.00000000
Si       1.33871220       1.37779828      -1.35498573       0.00000000
Si       1.29687948      -1.36922337       1.45645454       0.00000000
Si       0.29046699       2.42807893       2.70856598       0.00000000
Si       0.63941508      -0.15799671       3.63248066       0.00000000
Si      -0.43622991      -2.47340844       2.74092631       0.00000000
Si       2.68895772      -2.69951364       0.00562192       0.00000000
Si       2.69843850       0.01733256      -2.71339946       0.00000000
Si      -0.01741401      -2.69876430      -2.71477066       0.00000000
