10
Lattice="16.28999089631971 0.0 0.0 0.0 16.28999089631971 0.0 0.0 0.0 34.279985188174585" Properties=species:S:1:pos:R:3:initial_magmoms:R:1 pbc="T T T"
Si      -1.89576504      -0.79868241       1.05136773       0.00000000
Si       2.09378628       0.02231730       1.02795449       0.00000000
Si       0.24356808      -1.51760898      -1.76000398       0.00000000
Si      -0.38437884       2.28971330      -0.31928396       0.00000000
Si      -3.28085487       0.32967769      -0.62944944       0.00000000
Si       1.57903857       2.62033514      -1.62171845       0.00000000
Si       1.61013618      -3.06629928      -0.67840129       0.00000000
Si       1.58938272      -0.14196735       3.31542490       0.00000000
Si      -1.95815574       0.34388420       3.10676251       0.00000000
Si       0.25980921       3.22417286       1.77909795       0.00000000
