10
Lattice="16.28999089631971 0.0 0.0 0.0 16.28999089631971 0.0 0.0 0.0 34.279985188174585" Properties=species:S:1:pos:R:3:initial_magmoms:R:1 pbc="T T T"
Si      -1.82428356       0.48233061       1.37579369       0.00000000
Si      -0.06551186      -2.35827072      -0.39178617       0.00000000
Si       0.12931979       1.14174981      -2.11387647       0.00000000
Si       1.54662962       1.08594027       1.53900080       0.00000000
Si       2.45592112       2.54361834      -0.05573929       0.00000000
Si       2.47432883       1.42830720      -2.19467444       0.00000000
Si      -0.01293915      -3.08335002       1.91765772       0.00000000
Si       0.47566800      -1.35563751       3.49453792       0.00000000
Si      -2.49593655       2.68568343       0.98572152       0.00000000
Si       2.60507236      -0.60611832       2.85271340       0.00000000
