10
Lattice="16.28999089631971 0.0 0.0 0.0 16.28999089631971 0.0 0.0 0.0 34.279985188174585" Properties=species:S:1:pos:R:3:initial_magmoms:R:1 pbc="T T T"
Si      -0.13432734      -0.98738577      -2.10602635       0.00000000
Si      -2.10227337       0.96723504       0.36340233       0.00000000
Si       1.62189756       1.69854201      -0.22539103       0.00000000
Si       0.17715375      -1.25548659       2.02862210       0.00000000
Si       0.48008259       0.91950534       3.25759453       0.00000000
Si       1.28643759       2.85301431       1.82366195       0.00000000
Si      -2.98638054       1.44083421      -1.74666906       0.00000000
Si      -2.19916629      -0.33928812      -3.03028382       0.00000000
Si      -0.37491435      -3.28634460      -1.81138971       0.00000000
Si      -3.27539609      -0.43114743       1.86685476       0.00000000
