10
Lattice="16.28999089631971 0.0 0.0 0.0 16.28999089631971 0.0 0.0 0.0 34.279985188174585" Properties=species:S:1:pos:R:3:initial_magmoms:R:1 pbc="T T T"
Si      -1.35635427       1.35333573       1.35848229       0.00000000
Si       1.35637056       1.35709872      -1.35673401       0.00000000
Si      -1.35892809      -1.35844800      -1.35663117       0.00000000
Si       1.35586557      -1.35983014       1.36019629       0.00000000
Si       0.00245979      -2.70776845       2.71288526       0.00000000
Si       2.71370223      -0.00095948      -2.71456498       0.00000000
Si      -0.00153126       2.71421862      -2.71418790       0.00000000
Si       2.71264338      -2.71596232      -0.00161116       0.00000000
Si       2.71445157       2.71452813      -0.00006856       0.00000000
Si      -2.71731861       2.71280139       0.00250244       0.00000000
