10
Lattice="16.28999089631971 0.0 0.0 0.0 16.28999089631971 0.0 0.0 0.0 34.279985188174585" Properties=species:S:1:pos:R:3:initial_magmoms:R:1 pbc="T T T"
Si       0.92664036       1.61556075       1.42201065       0.00000000
Si      -1.76008563      -1.14520329       1.17174262       0.00000000
Si      -0.92927934       1.75917339      -1.45072369       0.00000000
Si       1.89739404      -1.79066196      -0.06546871       0.00000000
Si       2.33922771       0.33314679       2.71509012       0.00000000
Si      -0.38721330      -2.39024799       2.68335712       0.00000000
Si       2.32645635       2.91061575       0.02730090       0.00000000
Si      -1.48128228       0.60263226      -3.57961480       0.00000000
Si       0.57436911       3.69022257      -1.33921083       0.00000000
Si      -2.77594632       2.84609106      -0.16525780       0.00000000
