10
Lattice="16.28999089631971 0.0 0.0 0.0 16.28999089631971 0.0 0.0 0.0 34.279985188174585" Properties=species:S:1:pos:R:3:initial_magmoms:R:1 pbc="T T T"
Si      -0.89133178       1.15768958      -1.88313776       0.00000000
Si       1.12006782      -1.98511473      -0.85237231       0.00000000
Si      -2.31352928      -0.71092166       0.31499896       0.00000000
Si       1.10170899       0.57237359       2.10770607       0.00000000
Si       1.23807258       1.90720877      -2.52496228       0.00000000
Si      -1.91648429      -1.60049154       2.41104164       0.00000000
Si       0.70413525      -1.54981335      -3.11365279       0.00000000
Si      -0.68505477      -0.03388972       3.55269879       0.00000000
Si      -0.46802799      -3.71231085      -0.33145336       0.00000000
Si       2.97341370      -1.08489119       2.02797078       0.00000000
