10
Lattice="16.28999089631971 0.0 0.0 0.0 16.28999089631971 0.0 0.0 0.0 34.279985188174585" Properties=species:S:1:pos:R:3:initial_magmoms:R:1 pbc="T T T"
Si       1.48168953       1.27193949       1.22547588       0.00000000
Si       0.45739062      -2.23368480       0.40998885       0.00000000
Si       0.46742526       0.69511059      -2.21767632       0.00000000
Si      -2.08494081       1.04070294       0.48883286       0.00000000
Si      -1.88463897       0.53431200      -2.48557456       0.00000000
Si      -1.50602679      -2.56430664       1.71242334       0.00000000
Si       0.37157490       2.99029014      -1.71276614       0.00000000
Si      -1.74234582       3.03046128      -0.71374397       0.00000000
Si      -1.83653460      -2.57082264      -1.66093477       0.00000000
Si       0.48202110      -3.17066605      -1.77063078       0.00000000
