10
Lattice="16.28999089631971 0.0 0.0 0.0 16.28999089631971 0.0 0.0 0.0 34.279985188174585" Properties=species:S:1:pos:R:3:initial_magmoms:R:1 pbc="T T T"
Si       1.43309646       0.28844703       1.80549355       0.00000000
Si      -2.11392072       0.04017114       0.99902217       0.00000000
Si       0.09585036      -2.29517955      -0.50491018       0.00000000
Si      -1.23131223       0.69139647      -2.47093699       0.00000000
Si      -3.08677581      -0.07061715      -1.10998654       0.00000000
Si      -2.25621387      -2.45597814      -0.77280842       0.00000000
Si      -0.17370027       3.42819792      -0.20499443       0.00000000
Si      -0.37157490      -2.99029014       1.71276614       0.00000000
Si       1.76498892      -1.95942636      -2.39826338       0.00000000
Si       1.11011463      -1.71835065       2.93824201       0.00000000
