10
Lattice="16.28999089631971 0.0 0.0 0.0 16.28999089631971 0.0 0.0 0.0 34.279985188174585" Properties=species:S:1:pos:R:3:initial_magmoms:R:1 pbc="T T T"
Si      -0.60259968       1.04847327       2.02485130       0.00000000
Si       2.02282704      -1.19853675       0.27386295       0.00000000
Si       0.66215592       1.82159667      -1.36629813       0.00000000
Si      -1.78401564      -1.25662689      -0.93282748       0.00000000
Si       1.07261505       2.65974975       2.19464016       0.00000000
Si      -1.19273751       2.05104132      -2.83612188       0.00000000
Si       1.83782151      -3.02860422      -1.38443226       0.00000000
Si      -1.72662597      -3.39525954       0.03400576       0.00000000
Si      -1.32012531      -1.73700270      -3.14676728       0.00000000
Si      -3.75844509       0.09097965      -0.81942922       0.00000000
