10
Lattice="16.28999089631971 0.0 0.0 0.0 16.28999089631971 0.0 0.0 0.0 34.279985188174585" Properties=species:S:1:pos:R:3:initial_magmoms:R:1 pbc="T T T"
Si       1.36041048       1.35198855      -1.37044601       0.00000000
Si      -1.35839052      -1.36003581      -1.37195433       0.00000000
Si       1.33527501      -1.31484735       1.46077383       0.00000000
Si      -1.34454402       1.41885900       1.38943714       0.00000000
Si       2.72878677       2.69332344       0.01189516       0.00000000
Si      -2.71590138      -2.70778896      -0.00661604       0.00000000
Si      -2.72212416       2.70861975      -0.01138096       0.00000000
Si       2.71176372      -2.71977840       0.02101364       0.00000000
Si       0.00084708       2.70956457      -2.73060803       0.00000000
Si      -2.71381626      -0.00508248      -2.73119079       0.00000000
