10
Lattice="16.28999089631971 0.0 0.0 0.0 16.28999089631971 0.0 0.0 0.0 34.279985188174585" Properties=species:S:1:pos:R:3:initial_magmoms:R:1 pbc="T T T"
Si       1.86355971      -1.42390890       0.03582260       0.00000000
Si      -1.40445864      -1.81539018      -0.53579647       0.00000000
Si      -0.06100605       2.00814975      -1.29434440       0.00000000
Si      -0.57836016       0.73440207       2.20461564       0.00000000
Si       1.46328183      -2.30207022       2.23502200       0.00000000
Si       3.53877444       0.18736758       0.20561147       0.00000000
Si      -0.28079073       3.06333450       1.93599753       0.00000000
Si      -2.87622756       0.04978224       2.25394457       0.00000000
Si      -3.49816347      -1.18234449       0.27927920       0.00000000
Si       1.34643366      -0.30152790       3.44171244       0.00000000
