10
Lattice="16.28999089631971 0.0 0.0 0.0 16.28999089631971 0.0 0.0 0.0 34.279985188174585" Properties=species:S:1:pos:R:3:initial_magmoms:R:1 pbc="T T T"
Si       1.15272927      -1.94460246      -0.50165358       0.00000000
Si      -2.09378628      -0.02231730      -1.02795449       0.00000000
Si      -0.50440356      -0.16428465       2.28747041       0.00000000
Si       1.14803775       1.82491073      -1.07481526       0.00000000
Si      -2.05153002       1.54537921       2.40830743       0.00000000
Si      -0.48365010      -3.08861658      -1.70635578       0.00000000
Si      -2.47816512       2.26739600      -1.34723845       0.00000000
Si      -1.85021820      -1.53992628      -2.78795847       0.00000000
Si       1.50864948       0.20675140       3.35899479       0.00000000
Si      -0.51474771       2.59801784      -2.64967294       0.00000000
