10
Lattice="16.28999089631971 0.0 0.0 0.0 16.28999089631971 0.0 0.0 0.0 34.279985188174585" Properties=species:S:1:pos:R:3:initial_magmoms:R:1 pbc="T T T"
Si      -1.54712646       1.70966386       0.12083702       0.00000000
Si       2.01305304       0.37103605       1.07152438       0.00000000
Si       0.50440356       0.16428465      -2.28747041       0.00000000
Si      -1.10973996      -1.94240331       0.86779831       0.00000000
Si       2.83973796      -1.79595621       1.13370830       0.00000000
Si      -3.54753846       0.48585155      -0.20866239       0.00000000
Si       1.96400385      -2.94568812      -0.75621690       0.00000000
Si      -1.58938272       0.14196735      -3.31542490       0.00000000
Si       1.65713283      -1.78031781      -2.78912399       0.00000000
Si      -3.30703290      -1.20233232       1.41987778       0.00000000
