10
Lattice="16.28999089631971 0.0 0.0 0.0 16.28999089631971 0.0 0.0 0.0 34.279985188174585" Properties=species:S:1:pos:R:3:initial_magmoms:R:1 pbc="T T T"
Si       1.32950835      -1.19874279       1.57205358       0.00000000
Si       1.02745917       1.61278656      -1.47188881       0.00000000
Si      -0.76566258      -1.86352291      -1.44261369       0.00000000
Si      -1.37518551       1.48675083       1.53210023       0.00000000
Si       2.60123607      -2.61818974       0.23625093       0.00000000
Si      -0.96928758       2.80609422      -2.25803215       0.00000000
Si      -2.66968665      -2.61304210      -0.00324974       0.00000000
Si      -0.02783961      -2.56870072       2.93094723       0.00000000
Si       2.61115668       2.90608224      -0.02552832       0.00000000
Si      -2.68793145       2.89699242       0.06174857       0.00000000
