10
Lattice="16.28999089631971 0.0 0.0 0.0 16.28999089631971 0.0 0.0 0.0 34.279985188174585" Properties=species:S:1:pos:R:3:initial_magmoms:R:1 pbc="T T T"
Si       1.35614250       1.35642629       1.35731677       0.00000000
Si      -1.35845568      -1.35764639       1.35495145       0.00000000
Si      -1.35739683       1.35735645      -1.35800237       0.00000000
Si       1.35744570      -1.35763010      -1.35769385       0.00000000
Si       0.00057015       2.71448612      -2.71435930       0.00000000
Si       2.71480656       2.71486079       0.00023996       0.00000000
Si       2.71534108      -0.00071464      -2.71435930       0.00000000
Si      -2.71472850       2.71541465      -0.00017140       0.00000000
Si      -2.71503801      -2.71512467      -0.00027424       0.00000000
Si       2.71522823      -2.71505951      -0.00034280       0.00000000
