10
Lattice="16.28999089631971 0.0 0.0 0.0 16.28999089631971 0.0 0.0 0.0 34.279985188174585" Properties=species:S:1:pos:R:3:initial_magmoms:R:1 pbc="T T T"
Si      -1.37859012      -1.60125031       1.06134321       0.00000000
Si       0.35080515       1.27228158       1.96540977       0.00000000
Si      -0.88565472       1.43511642      -1.68373097       0.00000000
Si       2.04092523      -0.97627436      -0.84273963       0.00000000
Si       0.49467843      -0.31572789       3.68873415       0.00000000
Si      -1.73920185       0.01690902      -3.37246683       0.00000000
Si       0.78025842       3.00403890      -2.36950246       0.00000000
Si       2.29271976      -0.26046244      -3.15489164       0.00000000
Si      -1.63321911      -1.17246623       3.36876459       0.00000000
Si      -3.39164316      -1.97228636      -0.01018116       0.00000000
