10
Lattice="16.28999089631971 0.0 0.0 0.0 16.28999089631971 0.0 0.0 0.0 34.279985188174585" Properties=species:S:1:pos:R:3:initial_magmoms:R:1 pbc="T T T"
Si      -1.28244654       1.31613426       1.57761722       0.00000000
Si      -1.58369751      -1.29329568      -1.44636049       0.00000000
Si       1.64779281       1.21272534      -1.45582178       0.00000000
Si       1.42413696      -1.38701205       1.56872499       0.00000000
Si      -2.63544507       2.73531906       0.17513654       0.00000000
Si      -2.61115668      -2.90608224       0.02552832       0.00000000
Si       2.83372762       2.70255987      -0.05671284       0.00000000
Si      -2.63730213      -0.04623102       2.95280759       0.00000000
Si       0.07859925       2.66940972       2.95092219       0.00000000
Si       2.86921864      -2.75818859       0.29008082       0.00000000
