10
Lattice="16.28999089631971 0.0 0.0 0.0 16.28999089631971 0.0 0.0 0.0 34.279985188174585" Properties=species:S:1:pos:R:3:initial_magmoms:R:1 pbc="T T T"
Si       0.64676187      -2.00779137       1.05575557       0.00000000
Si      -1.37764530      -1.38740301      -1.36050481       0.00000000
Si      -1.19615841       1.45929078       1.47119495       0.00000000
Si       1.39186647       1.41229413      -1.40277206       0.00000000
Si       0.47869794       2.28395574       2.87653800       0.00000000
Si       2.71974582      -2.63463057       0.11902018       0.00000000
Si       2.43623466       0.87746085       2.77931991       0.00000000
Si      -2.76947105      -2.69262297       0.30831436       0.00000000
Si      -2.67693244       0.03875391      -2.80232180       0.00000000
Si       0.03254742      -2.67151113      -2.80982912       0.00000000
