10
Lattice="16.28999089631971 0.0 0.0 0.0 16.28999089631971 0.0 0.0 0.0 34.279985188174585" Properties=species:S:1:pos:R:3:initial_magmoms:R:1 pbc="T T T"
Si       1.35472527      -1.35332433      -1.36314437       0.00000000
Si      -1.36192545       1.36075257      -1.36177317       0.00000000
Si       1.37956752       1.34042265       1.38155274       0.00000000
Si      -1.36523232      -1.35381303       1.38953998       0.00000000
Si       2.71057638      -2.70831024       0.00123408       0.00000000
Si      -2.71435383      -2.71125873      -0.00133692       0.00000000
Si      -0.00333945      -2.71134018      -2.71946702       0.00000000
Si       2.70933951       2.72170062      -0.00257100       0.00000000
Si       2.71239117       0.00374670      -2.71926134       0.00000000
Si      -2.71658556       2.71795392      -0.00191968       0.00000000
