10
Lattice="16.28999089631971 0.0 0.0 0.0 16.28999089631971 0.0 0.0 0.0 34.279985188174585" Properties=species:S:1:pos:R:3:initial_magmoms:R:1 pbc="T T T"
Si      -1.11174363      -0.37480032       2.08573258       0.00000000
Si       1.49402173       1.43643591       1.23603412       0.00000000
Si       1.29876816      -1.50550551      -1.42234594       0.00000000
Si      -1.40553378       1.19221623      -1.67968593       0.00000000
Si      -2.08059138       1.81594404       1.75637030       0.00000000
Si       2.73366467      -2.07619308       0.41122293       0.00000000
Si      -0.04465089       2.87336052       2.22556072       0.00000000
Si      -3.28948857       2.01521961      -0.30426932       0.00000000
Si       0.11872056       2.54936871      -2.96247798       0.00000000
Si       2.87208080       2.64640824      -0.25946535       0.00000000
