10
Lattice="16.28999089631971 0.0 0.0 0.0 16.28999089631971 0.0 0.0 0.0 34.279985188174585" Properties=species:S:1:pos:R:3:initial_magmoms:R:1 pbc="T T T"
Si       1.20889719      -0.19927557       2.06063962       0.00000000
Si      -1.64426373      -1.83945051       0.06465209       0.00000000
Si       1.88395479      -0.82300338      -1.37541661       0.00000000
Si      -0.73148616       2.06184159      -1.19325267       0.00000000
Si       0.47410416      -2.29340394      -2.67925658       0.00000000
Si      -2.13402258       0.62284815      -2.78137671       0.00000000
Si      -3.34101384      -0.85978620      -1.30599961       0.00000000
Si       3.28948857      -2.01521961       0.30426932       0.00000000
Si       2.17774494      -2.39001993       2.39000190       0.00000000
Si      -0.54726255       3.96275427       0.59194712       0.00000000
