10
Lattice="16.28999089631971 0.0 0.0 0.0 16.28999089631971 0.0 0.0 0.0 34.279985188174585" Properties=species:S:1:pos:R:3:initial_magmoms:R:1 pbc="T T T"
Si       1.40985063       1.47040056       1.30383997       0.00000000
Si       1.48208049      -1.22101695      -1.52755127       0.00000000
Si      -1.23163803       1.51132104      -1.54188032       0.00000000
Si      -1.27951434      -1.51391115       1.56735036       0.00000000
Si      -2.11836789       0.45395343       2.74390867       0.00000000
Si      -0.47410416       2.29340394       2.67925658       0.00000000
Si      -2.73619872      -2.61783558      -0.00339372       0.00000000
Si       0.13172094      -2.55987576      -2.93337425       0.00000000
Si      -2.58075954       0.15387534      -2.93275721       0.00000000
Si      -2.60812674       2.91625209      -0.10212013       0.00000000
