10
Lattice="16.28999089631971 0.0 0.0 0.0 16.28999089631971 0.0 0.0 0.0 34.279985188174585" Properties=species:S:1:pos:R:3:initial_magmoms:R:1 pbc="T T T"
Si       0.91859310      -0.16710282      -2.10050727       0.00000000
Si      -2.26646028       0.44059563       0.10726213       0.00000000
Si       1.06934076       1.52956584       1.39331078       0.00000000
Si      -0.35880354      -2.19511008       0.88390991       0.00000000
Si      -2.58944211      -1.56620205       1.24001060       0.00000000
Si       2.95453359       0.89031366      -1.63131685       0.00000000
Si       1.88744085      -2.35784718      -1.77114498       0.00000000
Si      -0.10340892      -3.41800038      -1.19356119       0.00000000
Si      -2.46205431       2.22184197       1.55065600       0.00000000
Si      -0.60716088       1.99239732       3.02047974       0.00000000
