10
Lattice="16.28999089631971 0.0 0.0 0.0 16.28999089631971 0.0 0.0 0.0 34.279985188174585" Properties=species:S:1:pos:R:3:initial_magmoms:R:1 pbc="T T T"
Si      -1.83052359       1.46652354      -0.15374582       0.00000000
Si      -1.09776681      -2.05589574      -0.43981246       0.00000000
Si       1.72747305       0.18101448      -1.65963213       0.00000000
Si       1.12930425       0.62804466       2.24036968       0.00000000
Si       2.39912604      -2.02233834      -1.26955996       0.00000000
Si       2.02997835       2.62731636       1.39289942       0.00000000
Si      -1.43024571       2.34468486      -2.35294522       0.00000000
Si       3.07631763       1.95447420      -0.57895499       0.00000000
Si       0.58072221      -3.46414995      -1.42731654       0.00000000
Si       2.83924926      -2.42225784       1.06614242       0.00000000
