10
Lattice="16.28999089631971 0.0 0.0 0.0 16.28999089631971 0.0 0.0 0.0 34.279985188174585" Properties=species:S:1:pos:R:3:initial_magmoms:R:1 pbc="T T T"
Si       0.90067410       1.99927170      -0.84747027       0.00000000
Si       2.12384133      -1.09208160       0.04154737       0.00000000
Si      -0.46591029       1.04606235       2.24674576       0.00000000
Si      -1.12930425      -0.62804466      -2.24036968       0.00000000
Si      -1.97086194       2.47550985       1.02624049       0.00000000
Si       1.94701338       1.32642954      -2.81932468       0.00000000
Si       1.70994501      -3.05030250      -1.17422727       0.00000000
Si       2.55462453      -1.70901648       2.29874853       0.00000000
Si      -2.95982784       0.83847888      -2.39411550       0.00000000
Si       0.59816880      -0.44703018      -3.90000181       0.00000000
