10
Lattice="16.28999089631971 0.0 0.0 0.0 16.28999089631971 0.0 0.0 0.0 34.279985188174585" Properties=species:S:1:pos:R:3:initial_magmoms:R:1 pbc="T T T"
Si      -1.23496119       1.32972012       1.51603319       0.00000000
Si       1.32977199       1.38127797      -1.38412374       0.00000000
Si      -1.37956752      -1.34042265      -1.38155274       0.00000000
Si       1.42094316      -1.37800368       1.57091548       0.00000000
Si       2.69352936      -2.70150102       0.00041136       0.00000000
Si       2.68670874       2.73525390      -0.00627324       0.00000000
Si       2.68984945       0.02124216      -2.74349731       0.00000000
Si      -0.02484225      -2.69374698      -2.74469711       0.00000000
Si      -2.74479984      -2.69423568       0.00798724       0.00000000
Si      -2.72777679       2.71886616      -0.00113124       0.00000000
