10
Lattice="16.28999089631971 0.0 0.0 0.0 16.28999089631971 0.0 0.0 0.0 34.279985188174585" Properties=species:S:1:pos:R:3:initial_magmoms:R:1 pbc="T T T"
Si       1.72388925      -0.58236750       1.45086690       0.00000000
Si      -1.99169685      -0.24650028       1.18272871       0.00000000
Si       0.16405659       2.35460547       0.04446117       0.00000000
Si      -0.25889697      -0.16772184      -2.36819982       0.00000000
Si      -3.29458734      -0.58230234      -0.70222589       0.00000000
Si      -2.48468112       0.78986952      -2.35496774       0.00000000
Si       1.07175168       1.80247221      -2.89278673       0.00000000
Si      -1.70079003       2.84519511      -1.42981898       0.00000000
Si       3.49503579      -0.97308315      -0.06430929       0.00000000
Si       2.09937375       1.43068554       2.66938394       0.00000000
