10
Lattice="16.28999089631971 0.0 0.0 0.0 16.28999089631971 0.0 0.0 0.0 34.279985188174585" Properties=species:S:1:pos:R:3:initial_magmoms:R:1 pbc="T T T"
Si       1.98067571      -0.00814500       1.21118111       0.00000000
Si       0.03816747      -2.29925205      -0.36600761       0.00000000
Si      -1.77114654       0.39071565       1.51517619       0.00000000
Si       0.62120516       0.67492728      -2.59647037       0.00000000
Si       2.19194072       2.31744798       1.13998154       0.00000000
Si      -3.49503579       0.97308315       0.06430929       0.00000000
Si      -1.84702536      -1.65999987       2.65862002       0.00000000
Si       0.15407312       3.50863794       1.35279181       0.00000000
Si      -1.39566204       2.40376869       2.73369323       0.00000000
Si       1.78423460      -0.84704742       3.38813279       0.00000000
