10
Lattice="16.28999089631971 0.0 0.0 0.0 16.28999089631971 0.0 0.0 0.0 34.279985188174585" Properties=species:S:1:pos:R:3:initial_magmoms:R:1 pbc="T T T"
Si      -0.66215592      -1.82159667       1.36629813       0.00000000
Si      -1.85489343       0.22944465      -1.46982375       0.00000000
Si       0.53682066       1.84125870       1.40784550       0.00000000
Si       1.67650164      -0.46283148      -1.62716897       0.00000000
Si       1.75238046       1.58788404      -2.77061279       0.00000000
Si       0.60716088      -1.99239732      -3.02047974       0.00000000
Si       0.41045913       0.83815308       3.56093829       0.00000000
Si      -1.65929940      -1.55180169      -2.91321761       0.00000000
Si       1.36067112      -3.02013342       1.64016109       0.00000000
Si      -1.26475560      -0.77312340       3.39114943       0.00000000
