10
Lattice="16.28999089631971 0.0 0.0 0.0 16.28999089631971 0.0 0.0 0.0 34.279985188174585" Properties=species:S:1:pos:R:3:initial_magmoms:R:1 pbc="T T T"
Si      -1.56905280       1.67651793       0.17712478       0.00000000
Si      -0.12636153      -1.00310562       2.15309279       0.00000000
Si      -0.53682066      -1.84125870      -1.40784550       0.00000000
Si       1.94932656       1.25248923      -0.68460597       0.00000000
Si       2.15625843      -1.28480859       2.35486490       0.00000000
Si      -0.69331869       2.82624984       2.06704998       0.00000000
Si      -1.80157626      -2.61438210       1.98330393       0.00000000
Si       1.59104430       1.75967838      -2.95994126       0.00000000
Si      -1.19897658      -3.66285537      -0.04154737       0.00000000
Si      -3.72614202       0.81767655       0.65313692       0.00000000
