10
Lattice="16.28999089631971 0.0 0.0 0.0 16.28999089631971 0.0 0.0 0.0 34.279985188174585" Properties=species:S:1:pos:R:3:initial_magmoms:R:1 pbc="T T T"
Si      -2.25864108       0.04274496      -0.60394512       0.00000000
Si       0.91725732       0.48739680      -2.10362675       0.00000000
Si       0.36369054       1.72639791       1.60831496       0.00000000
Si       0.88146819      -2.04400404       0.88805779       0.00000000
Si      -3.19174857      -0.70064919       1.39732154       0.00000000
Si       0.38400417      -1.53101565      -3.35560107       0.00000000
Si       3.27630086       0.37866105      -1.83905367       0.00000000
Si       2.98728531      -1.49332059       1.77447014       0.00000000
Si       0.33418935       2.83471317      -2.57021189       0.00000000
Si       2.27381751       2.95940008       0.93755812       0.00000000
