10
Lattice="16.28999089631971 0.0 0.0 0.0 16.28999089631971 0.0 0.0 0.0 34.279985188174585" Properties=species:S:1:pos:R:3:initial_magmoms:R:1 pbc="T T T"
Si      -1.64534117       0.78793101      -1.56220836       0.00000000
Si       1.37297496       2.03932881      -0.36059137       0.00000000
Si       0.86200490      -1.82798235      -1.50790883       0.00000000
Si      -0.62120516      -0.67492728       2.59647037       0.00000000
Si      -3.04448927       2.10062808      -0.23200707       0.00000000
Si      -0.58303769      -2.97417933       2.23046276       0.00000000
Si       3.14550615       1.04010021      -1.81759439       0.00000000
Si      -0.49629098       2.21876316      -3.08688011       0.00000000
Si       2.52964641       2.34848043       1.70357910       0.00000000
Si       2.12716938      -0.65694312      -3.14697296       0.00000000
