10
Lattice="16.28999089631971 0.0 0.0 0.0 16.28999089631971 0.0 0.0 0.0 34.279985188174585" Properties=species:S:1:pos:R:3:initial_magmoms:R:1 pbc="T T T"
Si       1.47168910      -1.37314926       1.25334552       0.00000000
Si       1.26516448       1.17103923      -1.63906413       0.00000000
Si      -1.28167114      -1.47018879      -1.44966710       0.00000000
Si      -0.86200490       1.82798235       1.50790883       0.00000000
Si      -2.50734607       2.61591336      -0.05429953       0.00000000
Si       2.28350125       2.86808256      -0.30968556       0.00000000
Si       0.09363003      -2.58312159       2.74884499       0.00000000
Si       2.66784751      -2.83244004      -0.21784943       0.00000000
Si      -2.80592548      -2.82734127      -0.16687506       0.00000000
Si      -0.01590556       2.64306879      -3.02685582       0.00000000
