10
Lattice="16.28999089631971 0.0 0.0 0.0 16.28999089631971 0.0 0.0 0.0 34.279985188174585" Properties=species:S:1:pos:R:3:initial_magmoms:R:1 pbc="T T T"
Si      -1.39591358       0.79594569       1.70758986       0.00000000
Si       0.31162281       1.93324833      -1.30150892       0.00000000
Si       2.01624588      -0.58622823       1.07179862       0.00000000
Si      -0.62052587      -2.03188428      -1.21094115       0.00000000
Si       1.21876893       0.58961655      -2.95277673       0.00000000
Si      -0.84718493      -0.92383848       3.11001911       0.00000000
Si      -0.24609955      -1.17799506      -3.39149223       0.00000000
Si       1.51130475      -0.58442004       3.36794187       0.00000000
Si      -2.72832155      -2.78063784      -0.41495945       0.00000000
Si      -1.60284545       3.33324351      -1.33188101       0.00000000
