10
Lattice="16.28999089631971 0.0 0.0 0.0 16.28999089631971 0.0 0.0 0.0 34.279985188174585" Properties=species:S:1:pos:R:3:initial_magmoms:R:1 pbc="T T T"
Si      -1.24422857       1.90589742      -0.65008600       0.00000000
Si      -0.73335951      -2.04946119      -1.08033434       0.00000000
Si       2.20832127       1.08155826      -0.48831866       0.00000000
Si      -0.58323087      -0.54348327       2.45132883       0.00000000
Si       1.21075425       0.96032808       2.90433909       0.00000000
Si      -1.04578542       3.21633018       1.64156657       0.00000000
Si      -3.35004569       1.35521397      -1.53649835       0.00000000
Si      -0.07110585       3.30427989      -2.15353843       0.00000000
Si      -0.22841838      -2.05126938      -3.37647759       0.00000000
Si       2.03116752       2.33704485      -2.51694076       0.00000000
