10
Lattice="16.28999089631971 0.0 0.0 0.0 16.28999089631971 0.0 0.0 0.0 34.279985188174585" Properties=species:S:1:pos:R:3:initial_magmoms:R:1 pbc="T T T"
Si      -1.17431352       1.72880883       1.11166626       0.00000000
Si       1.84941999      -1.05345801       1.06326289       0.00000000
Si      -1.79398512      -1.50381135      -0.45301026       0.00000000
Si      -1.21075425      -0.96032808      -2.90433909       0.00000000
Si       0.28478178      -2.30914008       2.33965627       0.00000000
Si       1.30049586       2.29622211      -2.16368531       0.00000000
Si      -2.25653967       2.25600210      -1.26277252       0.00000000
Si       0.99756702       0.12123018      -3.39265775       0.00000000
Si      -2.56669964       0.49844142       2.53585102       0.00000000
Si      -1.06684839      -3.57775641       0.70585957       0.00000000
