10
Lattice="16.28999089631971 0.0 0.0 0.0 16.28999089631971 0.0 0.0 0.0 34.279985188174585" Properties=species:S:1:pos:R:3:initial_magmoms:R:1 pbc="T T T"
Si      -1.35747302      -1.35729909       1.35676829       0.00000000
Si       1.35727081      -1.35755973      -1.35724821       0.00000000
Si      -1.35778253       1.35742941      -1.35735105       0.00000000
Si       1.35719914       1.35847197       1.35717965       0.00000000
Si       0.00143303       2.71117728       2.71552482       0.00000000
Si       2.71356807       0.00086337      -2.71398222       0.00000000
Si       0.00011285       2.71434487      -2.71401650       0.00000000
Si      -0.00320087      -2.71197549       2.71723882       0.00000000
Si      -2.71436486       0.00009774      -2.71501062       0.00000000
Si       2.71475724       2.71480657      -0.00027424       0.00000000
