10
Lattice="16.28999089631971 0.0 0.0 0.0 16.28999089631971 0.0 0.0 0.0 34.279985188174585" Properties=species:S:1:pos:R:3:initial_magmoms:R:1 pbc="T T T"
Si      -1.35629725      -1.35842310       1.35673401       0.00000000
Si      -1.35568964       1.35790182      -1.35807093       0.00000000
Si       1.35889551       1.35672894       1.35700825       0.00000000
Si       1.35783666      -1.35971001      -1.36108757       0.00000000
Si       0.00667890       2.69836197      -2.69963261       0.00000000
Si      -2.71345522       2.71348150      -0.00003428       0.00000000
Si      -2.71356807      -0.00086337       2.71398222       0.00000000
Si       0.00118917       2.71394320       2.71370798       0.00000000
Si       0.00127062      -2.71595025       2.71429074       0.00000000
Si       2.71614573      -0.00087966       2.71411934       0.00000000
