10
Lattice="16.28999089631971 0.0 0.0 0.0 16.28999089631971 0.0 0.0 0.0 34.279985188174585" Properties=species:S:1:pos:R:3:initial_magmoms:R:1 pbc="T T T"
Si      -1.36016859       1.30517109      -1.45995111       0.00000000
Si      -1.14905019      -1.43083215       1.52467175       0.00000000
Si       1.34239032      -1.40367672      -1.44788454       0.00000000
Si       1.06206223       1.68909381       1.37833041       0.00000000
Si       1.86926593      -0.17943435       2.72628875       0.00000000
Si      -2.47964997       2.77307979       0.01367772       0.00000000
Si       2.74063432       2.61343728      -0.08474017       0.00000000
Si      -2.57927961      -2.80921050       0.07442189       0.00000000
Si      -2.54819829      -0.11813508       2.85487304       0.00000000
Si       0.49629098      -2.21876316       3.08688011       0.00000000
