10
Lattice="16.28999089631971 0.0 0.0 0.0 16.28999089631971 0.0 0.0 0.0 34.279985188174585" Properties=species:S:1:pos:R:3:initial_magmoms:R:1 pbc="T T T"
Si       1.67857210       0.92434347      -1.46307059       0.00000000
Si      -1.06206223      -1.68909381      -1.37833041       0.00000000
Si       0.80720371      -1.86852816       1.34795833       0.00000000
Si      -1.82784130       1.69254796       0.39425433       0.00000000
Si       0.29016725       2.33768409      -2.82093584       0.00000000
Si      -2.42223082      -0.38392272      -2.83828152       0.00000000
Si       3.65537989      -0.55234503       0.78250966       0.00000000
Si      -2.21111242      -3.11992596       0.14634134       0.00000000
Si      -1.06730552       3.50496359      -1.16905099       0.00000000
Si       2.57973490      -2.86775676      -0.10904469       0.00000000
