10
Lattice="16.28999089631971 0.0 0.0 0.0 16.28999089631971 0.0 0.0 0.0 34.279985188174585" Properties=species:S:1:pos:R:3:initial_magmoms:R:1 pbc="T T T"
Si      -0.95891085      -0.70595973       2.03287282       0.00000000
Si      -0.27921060       2.34362601       0.10153737       0.00000000
Si      -1.15667145      -0.30915162      -2.06417046       0.00000000
Si       1.55344698      -1.25858169      -1.38100426       0.00000000
Si       2.43092412       0.56540961      -0.01460328       0.00000000
Si       1.69150473       1.00703151      -2.62961913       0.00000000
Si       1.86382035       2.61039856       1.11019222       0.00000000
Si      -2.99677845       0.48523023       2.24568308       0.00000000
Si       0.61585974      -1.30838022      -3.52117349       0.00000000
Si      -2.52964641      -2.34848043      -1.70357910       0.00000000
