10
Lattice="16.290000149 0.0 0.0 0.0 16.290000149 0.0 0.0 0.0 29.1751946751" Properties=species:S:1:pos:R:3:initial_magmoms:R:1 pbc="T T T"
H        0.42624414       1.28252800      -0.68176595       0.00000000
Si      -0.87415399       0.98922655       1.91689782       0.00000000
Si      -1.93947113      -0.64944973      -1.16350676       0.00000000
Si       2.00078669      -1.38217393      -0.12195231       0.00000000
H        0.92092258      -0.25599735      -2.55064139       0.00000000
H       -0.70172434      -2.62107731      -1.00928668       0.00000000
Si       3.12634588       0.69421465      -0.71966453       0.00000000
Si      -2.37930113       2.30376440       0.61536321       0.00000000
Si       0.71394184      -2.93122263      -1.51381333       0.00000000
H       -1.78795784      -1.71751988      -2.34588988       0.00000000
