10
Lattice="16.290000149 0.0 0.0 0.0 16.290000149 0.0 0.0 0.0 29.1751946751" Properties=species:S:1:pos:R:3:initial_magmoms:R:1 pbc="T T T"
Si       1.60640578      -0.18435393      -1.68428399       0.00000000
Si      -0.43999290       2.28858538      -0.30383048       0.00000000
Si       0.24516450      -0.51652332       2.29799938       0.00000000
Si      -1.90039142      -1.29492469      -0.62887132       0.00000000
H        1.33555195      -2.22400856       1.52049445       0.00000000
H       -2.78348862      -0.43665345      -1.51200446       0.00000000
Si      -1.50162850       1.02571615       2.74853090       0.00000000
Si       0.04166982      -0.95878054      -3.27546993       0.00000000
Si      -2.33471540       2.27160305       1.03560271       0.00000000
Si      -0.87944824      -2.78832675      -2.10286051       0.00000000
