10
Lattice="16.290000149 0.0 0.0 0.0 16.290000149 0.0 0.0 0.0 29.1751946751" Properties=species:S:1:pos:R:3:initial_magmoms:R:1 pbc="T T T"
Si      -0.43937388       0.24650028      -2.28383920       0.00000000
Si       0.80550793       1.85820032       1.18679820       0.00000000
Si      -1.87372469      -0.80254315       1.19639100       0.00000000
Si       1.63264897      -1.73591129       0.08352362       0.00000000
Si       2.18284373       0.59460130       2.60211898       0.00000000
Si      -0.67103398      -2.19994823       2.63775940       0.00000000
Si      -2.15702408       1.87681979      -2.17749561       0.00000000
Si      -0.48931902      -2.04682223      -2.95022982       0.00000000
Si       1.71649361      -2.42559731      -2.14776609       0.00000000
Si       0.64404145      -3.52315073       1.23639311       0.00000000
