10
Lattice="16.290000149 0.0 0.0 0.0 16.290000149 0.0 0.0 0.0 29.1751946751" Properties=species:S:1:pos:R:3:initial_magmoms:R:1 pbc="T T T"
Si       1.32598972       1.38018655      -1.37988751       0.00000000
Si       1.34889346      -1.36423864       1.37482853       0.00000000
Si      -1.36378252       1.34661286       1.38992670       0.00000000
Si      -1.39681864      -1.37777563      -1.33425751       0.00000000
Si       2.51835257      -0.09844047      -2.80912195       0.00000000
Si      -2.65087172      -2.75084346       0.08728926       0.00000000
Si       2.72104904       0.04178385       2.68693040       0.00000000
Si      -2.85128760       0.03575655      -2.55287621       0.00000000
Si      -0.07182261       2.80523577      -2.60655857       0.00000000
Si       2.63476091       2.82647793      -0.00926021       0.00000000
