10
Lattice="16.290000149 0.0 0.0 0.0 16.290000149 0.0 0.0 0.0 29.1751946751" Properties=species:S:1:pos:R:3:initial_magmoms:R:1 pbc="T T T"
Si      -1.36788760      -1.35790183      -1.32837579       0.00000000
Si      -1.43726671       1.33463971       1.28093692       0.00000000
Si       1.35347095       1.35184195      -1.36160634       0.00000000
Si       1.36236529      -1.32563134       1.38124124       0.00000000
Si      -0.08671167       2.67737555       2.59291625       0.00000000
Si      -0.09410733      -2.62477514       2.68423461       0.00000000
Si       0.00348606      -2.71438643      -2.66101116       0.00000000
Si      -2.71042796       0.02539611      -2.67221443       0.00000000
Si       2.73219140      -0.01418859      -2.67317721       0.00000000
Si       2.73035063       2.69234606      -0.02946695       0.00000000
