10
Lattice="16.290000149 0.0 0.0 0.0 16.290000149 0.0 0.0 0.0 29.1751946751" Properties=species:S:1:pos:R:3:initial_magmoms:R:1 pbc="T T T"
Si      -1.34271955       1.35782038      -1.36895848       0.00000000
Si       1.32777022      -1.34902378      -1.39530369       0.00000000
Si       1.34837870       1.37881819       1.35049059       0.00000000
Si      -1.34433226      -1.37140624       1.36303592       0.00000000
Si       2.66711285      -2.70817994      -0.03270539       0.00000000
Si      -2.68667714       2.72280836      -0.01797192       0.00000000
Si      -2.70949943      -2.71117730      -0.00930689       0.00000000
Si       2.72135855       0.03702717       2.70477395       0.00000000
Si      -2.72756505      -0.02726946       2.69905561       0.00000000
Si       2.70876638       2.72893340      -0.00242154       0.00000000
