10
Lattice="16.290000149 0.0 0.0 0.0 16.290000149 0.0 0.0 0.0 29.1751946751" Properties=species:S:1:pos:R:3:initial_magmoms:R:1 pbc="T T T"
Si       1.72097336      -0.75976561      -1.37826537       0.00000000
Si       1.35896068       1.34495128       1.34270081       0.00000000
Si      -1.44222050       1.17876070      -1.44919027       0.00000000
Si      -1.18489551      -1.69313375       1.19568700       0.00000000
Si      -1.65248857      -0.66986110      -2.89216622       0.00000000
Si       0.65375029      -0.84479941      -3.48287639       0.00000000
Si       2.56023416      -2.60387507      -0.24705555       0.00000000
Si      -2.65116934      -0.41643756       2.53867956       0.00000000
Si      -0.08645103       2.53690688       2.70154571       0.00000000
Si      -2.90545185       2.38705517      -0.10788987       0.00000000
