10
Lattice="16.290000149 0.0 0.0 0.0 16.290000149 0.0 0.0 0.0 29.1751946751" Properties=species:S:1:pos:R:3:initial_magmoms:R:1 pbc="T T T"
H       -0.52592265      -0.66451798       1.43766607       0.00000000
Si      -1.91651852      -0.82067392      -1.15624214       0.00000000
Si       1.68559148      -1.69401341      -0.11106997       0.00000000
Si       0.69155938       1.92456578      -1.31142500       0.00000000
H        2.18295776       0.79700455       1.23291455       0.00000000
Si      -0.67743595       0.40355217       2.62004918       0.00000000
H       -1.11695644       2.49828329       0.30476408       0.00000000
H       -2.64901466      -0.32881365       1.33318970       0.00000000
H        0.56031085      -1.56807541       2.77426926       0.00000000
H       -0.51385176       2.44144748      -2.07832417       0.00000000
