10
Lattice="16.290000149 0.0 0.0 0.0 16.290000149 0.0 0.0 0.0 29.1751946751" Properties=species:S:1:pos:R:3:initial_magmoms:R:1 pbc="T T T"
Si       1.35224269      -1.41130045       1.31402159       0.00000000
Si      -1.46627383       1.27669618       1.34299256       0.00000000
Si      -1.10191588      -1.71062921      -1.24796895       0.00000000
Si       1.18489551       1.69313375      -1.19568700       0.00000000
Si       2.35831310      -2.65241927      -0.52970483       0.00000000
Si      -2.77254825      -2.48833010       0.20195070       0.00000000
Si       2.52241856       0.05719419       2.76539125       0.00000000
Si      -2.87320416       2.44597610      -0.11483357       0.00000000
Si      -0.13639128      -2.61070058       2.74841712       0.00000000
Si       0.30406263      -3.66248073      -1.25330801       0.00000000
