10
Lattice="16.290000149 0.0 0.0 0.0 16.290000149 0.0 0.0 0.0 29.1751946751" Properties=species:S:1:pos:R:3:initial_magmoms:R:1 pbc="T T T"
Si      -1.49330431       1.79593994      -0.06441883       0.00000000
Si       1.14593635      -1.12862008      -1.71894412       0.00000000
Si      -1.63833418      -1.52047603       0.78705923       0.00000000
Si       1.91651852       0.82067392       1.15624214       0.00000000
H       -0.73249615       0.49186026       2.48943184       0.00000000
H        1.39059586       0.15615594       2.59390821       0.00000000
H       -1.29909493       0.98132590       2.71297218       0.00000000
Si       2.47963124      -2.53477289      -0.33320990       0.00000000
H        1.40266675       3.26212140      -0.92208203       0.00000000
H        0.79956208       3.31895721       1.46100622       0.00000000
