10
Lattice="16.290000149 0.0 0.0 0.0 16.290000149 0.0 0.0 0.0 29.1751946751" Properties=species:S:1:pos:R:3:initial_magmoms:R:1 pbc="T T T"
Si      -0.92999611       1.04353741      -1.83500304       0.00000000
Si       1.06738597       1.74693962       1.08797218       0.00000000
Si       1.33333651      -1.55064511      -1.15142823       0.00000000
Si      -1.93670183      -1.03332358       0.90536464       0.00000000
H        0.51337935      -1.28849014       2.40240223       0.00000000
Si       0.69296032      -2.67573515       1.79097768       0.00000000
Si      -1.69982894      -1.00826956      -2.70634941       0.00000000
Si      -0.47542365      -2.87869226      -1.75611332       0.00000000
Si      -2.22285197       2.53539191      -0.50321376       0.00000000
Si      -1.20777319      -3.22393275       0.50525602       0.00000000
