10
Lattice="16.290000149 0.0 0.0 0.0 16.290000149 0.0 0.0 0.0 29.1751946751" Properties=species:S:1:pos:R:3:initial_magmoms:R:1 pbc="T T T"
Si      -0.23923494       2.14044086       0.88972674       0.00000000
Si      -1.80379172      -0.75254914      -1.39953409       0.00000000
Si       0.34754715      -1.95530501       1.35857212       0.00000000
Si       2.11336688       0.59113153      -1.01523842       0.00000000
H        2.30757626      -0.22348251       1.76215258       0.00000000
H       -1.36959805       2.20258721       1.89349931       0.00000000
H        2.87417505      -0.71294815       1.53861224       0.00000000
H       -1.04886424      -1.09849987       2.99182869       0.00000000
Si       1.96833701      -2.72528444      -0.16376037       0.00000000
H        1.07281054      -1.88519285       2.68563502       0.00000000
