10
Lattice="16.290000149 0.0 0.0 0.0 16.290000149 0.0 0.0 0.0 29.1751946751" Properties=species:S:1:pos:R:3:initial_magmoms:R:1 pbc="T T T"
Si       1.41212636       1.39031893      -1.25655521       0.00000000
Si       1.36573244      -1.34772058       1.37216776       0.00000000
Si      -1.28148332       1.34529337       1.45636737       0.00000000
Si      -1.39068220      -1.28691001      -1.43493819       0.00000000
Si      -2.69375189      -2.64070676      -0.00067103       0.00000000
Si      -2.59832507       2.78070791       0.18065281       0.00000000
Si       0.13308441       2.76280194      -2.64422083       0.00000000
Si       2.74103199       0.07602543      -2.67724132       0.00000000
Si       2.71741149      -2.71689509       0.01330389       0.00000000
Si       0.01895993      -2.69537600       2.74068861       0.00000000
