10
Lattice="16.290000149 0.0 0.0 0.0 16.290000149 0.0 0.0 0.0 29.1751946751" Properties=species:S:1:pos:R:3:initial_magmoms:R:1 pbc="T T T"
Si       1.27273266      -1.35953083      -1.42342857       0.00000000
Si       1.36381168       1.41175657       1.30736965       0.00000000
Si      -1.38724517       1.35697330      -1.35440006       0.00000000
Si      -1.29800855      -1.35852085       1.44493069       0.00000000
Si       2.62089307      -2.69467553      -0.04781814       0.00000000
Si      -0.06685921       2.65698047       2.67562793       0.00000000
Si      -2.72102151      -2.63023229       0.03722755       0.00000000
Si       2.61507754       0.00902466      -2.78637697       0.00000000
Si      -0.03282940       2.70436808      -2.74780736       0.00000000
Si      -0.10558054      -2.72070695      -2.75822290       0.00000000
