10
Lattice="16.290000149 0.0 0.0 0.0 16.290000149 0.0 0.0 0.0 29.1751946751" Properties=species:S:1:pos:R:3:initial_magmoms:R:1 pbc="T T T"
Si      -1.35884665      -1.36511830      -1.33126413       0.00000000
Si      -1.34721559       1.34780203       1.36639107       0.00000000
Si       1.33665967      -1.37582083       1.35241615       0.00000000
Si       1.33804432       1.35720136      -1.38077444       0.00000000
Si      -2.70311375       2.67760361      -0.02129789       0.00000000
Si       2.67945579      -0.01550808       2.70632023       0.00000000
Si       0.00654858      -2.71235018      -2.68137544       0.00000000
Si      -2.68815953       0.00158013      -2.70713714       0.00000000
Si       2.69005406       2.70995555      -0.01960573       0.00000000
Si      -2.70093089      -0.02731833       2.70885848       0.00000000
