10
Lattice="16.290000149 0.0 0.0 0.0 16.290000149 0.0 0.0 0.0 29.1751946751" Properties=species:S:1:pos:R:3:initial_magmoms:R:1 pbc="T T T"
Si       1.38934153      -1.34894233       1.32980537       0.00000000
Si       1.37573938       1.34809525      -1.35046141       0.00000000
Si      -1.31423686      -1.36643779      -1.39425338       0.00000000
Si      -1.36956547       1.33988509       1.38030764       0.00000000
Si       0.02895385      -2.69905754       2.68271750       0.00000000
Si      -2.66214440      -2.72005535      -0.03673157       0.00000000
Si      -2.70163136       2.70583744       0.00808153       0.00000000
Si       0.02984165       2.70878105      -2.70608683       0.00000000
Si      -2.68276754      -0.00987174      -2.73517450       0.00000000
Si       2.70744689      -2.71217099      -0.06059688       0.00000000
