10
Lattice="16.290000149 0.0 0.0 0.0 16.290000149 0.0 0.0 0.0 29.1751946751" Properties=species:S:1:pos:R:3:initial_magmoms:R:1 pbc="T T T"
Si      -1.43495353       1.34545953      -1.26109779       0.00000000
Si      -1.38003994      -1.34299648       1.33514443       0.00000000
Si       1.34653141       1.38853192       1.33902473       0.00000000
Si       1.35376417      -1.32872644      -1.40192645       0.00000000
Si      -0.10075365       2.68514588      -2.58861583       0.00000000
Si      -0.01070253      -2.69122205       2.67606556       0.00000000
Si       2.69998607      -2.67338450      -0.03632312       0.00000000
Si       2.70666497       0.03549591       2.69152841       0.00000000
Si      -2.73064386       0.03373659       2.68368028       0.00000000
Si      -0.06827139      -2.78818014      -2.62756471       0.00000000
