10
Lattice="16.290000149 0.0 0.0 0.0 16.290000149 0.0 0.0 0.0 29.1751946751" Properties=species:S:1:pos:R:3:initial_magmoms:R:1 pbc="T T T"
Si      -1.89190433      -1.33307587      -0.39065586       0.00000000
Si       0.52338141       1.25725081      -1.93113531       0.00000000
Si       1.93012067      -1.49441203       0.31302066       0.00000000
H       -0.89503777      -0.97228495       2.07648613       0.00000000
Si      -1.61464852       1.53301445       1.07700231       0.00000000
H       -2.80495884      -1.40400253       0.82387832       0.00000000
Si       0.19411164       2.86106160       1.68168740       0.00000000
Si      -2.78034465       0.08451252      -1.98265870       0.00000000
Si      -0.01194057      -1.83055619       2.95961927       0.00000000
Si       1.55543437      -0.36259911      -3.25040844       0.00000000
