10
Lattice="16.290000149 0.0 0.0 0.0 16.290000149 0.0 0.0 0.0 29.1751946751" Properties=species:S:1:pos:R:3:initial_magmoms:R:1 pbc="T T T"
Si       1.42661305       1.38789172       1.18069095       0.00000000
Si      -1.32017419       1.44045955      -1.27609384       0.00000000
Si       1.43352001      -1.32181948      -1.28295001       0.00000000
Si      -1.38354229      -1.33678999       1.33943319       0.00000000
Si       0.05664033      -2.66232359      -2.61508940       0.00000000
Si      -2.66804138       0.07884360      -2.62512567       0.00000000
Si       0.01233153      -2.61711884       2.70153550       0.00000000
Si      -2.56920995       0.11453499       2.74885767       0.00000000
Si       2.72332964       0.09629019       2.60899178       0.00000000
Si       0.06853203       2.79997410      -2.58944440       0.00000000
