10
Lattice="16.290000149 0.0 0.0 0.0 16.290000149 0.0 0.0 0.0 29.1751946751" Properties=species:S:1:pos:R:3:initial_magmoms:R:1 pbc="T T T"
Si      -0.73819765       1.32107014      -1.79301994       0.00000000
Si       1.99607888      -0.88760138      -0.97310944       0.00000000
Si      -1.51526323      -1.85312924      -0.07045810       0.00000000
Si      -0.63078139       1.07554726       2.04535620       0.00000000
H        2.45153099       1.40315545       1.03878281       0.00000000
H        1.24659226      -0.78308963       2.77094329       0.00000000
Si      -2.50015664       2.28861470      -0.53451874       0.00000000
Si       0.80892883      -2.03548488      -2.66906351       0.00000000
Si      -0.62776774      -0.41212071      -3.59820593       0.00000000
Si       2.57168603      -2.62703945       0.54379645       0.00000000
