10
Lattice="16.290000149 0.0 0.0 0.0 16.290000149 0.0 0.0 0.0 29.1751946751" Properties=species:S:1:pos:R:3:initial_magmoms:R:1 pbc="T T T"
Si       1.20541114      -0.51688170       0.76689917       0.00000000
H       -0.81471178       0.71449570      -1.67194288       0.00000000
H        0.60711202       1.61973100      -1.10460205       0.00000000
H       -0.60310468       0.05683581       2.38308825       0.00000000
Si      -1.90133624       0.51302097       1.74639798       0.00000000
Si      -1.66619009      -0.23599323      -2.45445078       0.00000000
Si      -1.63160642       2.55032984       0.54210429       0.00000000
Si       2.51209721      -1.63339831      -0.83239748       0.00000000
Si       0.51385176      -2.44144748       2.07832417       0.00000000
Si      -2.89597107      -1.46618146       0.85766320       0.00000000
