10
Lattice="16.290000149 0.0 0.0 0.0 16.290000149 0.0 0.0 0.0 29.1751946751" Properties=species:S:1:pos:R:3:initial_magmoms:R:1 pbc="T T T"
Si      -1.26236587       1.42759045       1.32796063       0.00000000
Si       1.63267667      -1.18265401       1.21460566       0.00000000
Si       0.68257870       1.76246399      -1.50608190       0.00000000
Si      -1.33420477      -1.97775263      -0.48497926       0.00000000
Si       0.29619619      -2.58929389       2.56655646       0.00000000
Si       0.15409037       0.86074732      -3.60068583       0.00000000
Si      -2.58584693       0.10363698       2.69300759       0.00000000
Si      -0.40399200      -2.79132411      -2.48105856       0.00000000
Si       0.24212479       2.81424414       2.49564323       0.00000000
Si      -2.39403218       2.93661462      -0.05082319       0.00000000
