10
Lattice="16.290000149 0.0 0.0 0.0 16.290000149 0.0 0.0 0.0 29.1751946751" Properties=species:S:1:pos:R:3:initial_magmoms:R:1 pbc="T T T"
Si       1.29213910       1.43749428      -1.27933229       0.00000000
Si      -1.03205296       1.61984992       1.31927313       0.00000000
Si       1.52743186      -0.99360856       1.50794911       0.00000000
Si      -1.57462399      -1.32634810      -1.19910050       0.00000000
Si       2.47928915       2.58537778       0.41662178       0.00000000
Si      -1.55543437       0.36259911       3.25040844       0.00000000
Si       2.59423139       0.02497257      -2.61978661       0.00000000
H        0.66409444      -2.25694694      -2.84580684       0.00000000
Si       3.05489631       0.84593971       1.93352768       0.00000000
Si       2.54016488      -2.75144619       0.24469236       0.00000000
