10
Lattice="16.290000149 0.0 0.0 0.0 16.290000149 0.0 0.0 0.0 29.1751946751" Properties=species:S:1:pos:R:3:initial_magmoms:R:1 pbc="T T T"
Si       1.36038769       1.35011521      -1.35291213       0.00000000
Si       1.37297986      -1.34179102       1.35428336       0.00000000
Si      -1.33788069       1.36370107       1.37269291       0.00000000
Si      -1.34837870      -1.37881819      -1.35049059       0.00000000
Si      -2.68617867      -0.04742019       2.67717421       0.00000000
Si       2.67098336      -2.70107750      -0.06126791       0.00000000
Si      -0.02895385       2.69905754      -2.68271750       0.00000000
Si      -2.69109825      -0.02099781      -2.71944907       0.00000000
Si       2.67849305      -0.01311345      -2.74331438       0.00000000
Si       2.72605985       0.03979647       2.70763312       0.00000000
