10
Lattice="16.290000149 0.0 0.0 0.0 16.290000149 0.0 0.0 0.0 29.1751946751" Properties=species:S:1:pos:R:3:initial_magmoms:R:1 pbc="T T T"
Si       1.35200974       1.35275419       1.36116871       0.00000000
Si       1.38812630      -1.36114354      -1.32297838       0.00000000
Si      -1.33804432      -1.35720136       1.38077444       0.00000000
Si      -1.34539111       1.38075670      -1.35451676       0.00000000
Si      -2.68934870       2.71166600       0.03212189       0.00000000
Si       0.05375260      -2.73818612      -2.66853836       0.00000000
Si      -2.70151733       0.03130938      -2.70935445       0.00000000
Si       2.69135237      -0.00640197       2.72376700       0.00000000
Si       2.71070489       2.70469388      -0.00131288       0.00000000
Si      -2.69689097      -2.72231966       0.04951031       0.00000000
