10
Lattice="16.290000149 0.0 0.0 0.0 16.290000149 0.0 0.0 0.0 29.1751946751" Properties=species:S:1:pos:R:3:initial_magmoms:R:1 pbc="T T T"
Si      -1.56269971       1.27553959      -1.13579033       0.00000000
Si      -1.37790595      -1.44448318       1.17520602       0.00000000
Si       1.09525816      -1.11817819      -1.83153120       0.00000000
Si       1.58602699       1.12031218       1.44227575       0.00000000
Si       2.13061799      -2.45324144      -0.23935330       0.00000000
Si       0.33187617      -3.03562524       1.18673022       0.00000000
Si       0.02234988       2.34535277      -2.51849033       0.00000000
Si       1.85254769       0.81855622      -3.02759748       0.00000000
Si      -2.32914422      -0.15902298       2.91714019       0.00000000
Si      -2.95836177      -2.24717294      -0.40445572       0.00000000
