10
Lattice="16.290000149 0.0 0.0 0.0 16.290000149 0.0 0.0 0.0 29.1751946751" Properties=species:S:1:pos:R:3:initial_magmoms:R:1 pbc="T T T"
Si      -0.11733687       2.30659560       0.22952126       0.00000000
Si       1.59889609       0.08146629      -1.79701694       0.00000000
Si       0.28711125      -0.89262685       2.24237629       0.00000000
Si      -2.12757176      -0.96459607      -0.68643398       0.00000000
H        1.10400589      -2.72846100       0.02832911       0.00000000
H        2.52582968      -1.82322569       0.59566995       0.00000000
Si      -1.86502583       1.98351766       1.72145319       0.00000000
Si      -1.90803143      -0.16260678       2.70386952       0.00000000
Si       3.18098091      -1.00313821      -0.47934845       0.00000000
Si      -1.04418901      -2.38734839      -2.18247961       0.00000000
