10
Lattice="16.290000149 0.0 0.0 0.0 16.290000149 0.0 0.0 0.0 29.1751946751" Properties=species:S:1:pos:R:3:initial_magmoms:R:1 pbc="T T T"
Si       1.34790754       1.35361756      -1.35752181       0.00000000
Si      -1.34395759       1.36498798       1.35098656       0.00000000
Si       1.34271955      -1.35782038       1.36895848       0.00000000
Si      -1.37086867      -1.34793235      -1.35539202       0.00000000
Si      -2.68174127      -0.08177580       2.60744550       0.00000000
Si       2.67048977      -2.70684416      -0.02634520       0.00000000
Si       2.66214440       2.72005535       0.03673157       0.00000000
Si      -0.02062314       2.71018361      -2.69844293       0.00000000
Si       2.69109825       0.02099781       2.71944907       0.00000000
Si      -0.02691108      -2.67884165      -2.74203067       0.00000000
