10
Lattice="16.290000149 0.0 0.0 0.0 16.290000149 0.0 0.0 0.0 29.1751946751" Properties=species:S:1:pos:R:3:initial_magmoms:R:1 pbc="T T T"
Si      -1.67063237      -0.77770090       1.44991965       0.00000000
Si       1.10191588       1.71062921       1.24796895       0.00000000
Si      -0.49123636       0.65751328      -2.24217206       0.00000000
Si       1.40597851      -1.95185153      -0.00533906       0.00000000
H       -2.85149448      -1.31233870       0.38590030       0.00000000
Si       2.45415857       0.29932875       2.56199055       0.00000000
Si       0.87749018      -2.85356820      -2.09994299       0.00000000
Si       3.46022898      -0.94179007       0.71826412       0.00000000
Si      -0.53896606      -2.28672506       2.82870346       0.00000000
H        2.85011960      -0.36939204      -2.38186289       0.00000000
