10
Lattice="16.290000149 0.0 0.0 0.0 16.290000149 0.0 0.0 0.0 29.1751946751" Properties=species:S:1:pos:R:3:initial_magmoms:R:1 pbc="T T T"
Si      -0.72892864       2.19060917       0.40010862       0.00000000
Si       1.90073351       0.54819760       1.28572165       0.00000000
Si      -1.61642413      -1.48933444       0.93821591       0.00000000
Si       0.73234954       0.34524049      -2.26136934       0.00000000
H        1.45196029      -2.16005891      -1.26188552       0.00000000
H        1.72115255       1.93544261       1.89714621       0.00000000
Si       2.54110970       1.67328764      -1.65668425       0.00000000
Si       1.20777319       3.22393275      -0.50525602       0.00000000
H       -0.45796077      -2.59177649      -2.51449333       0.00000000
Si      -0.40146705      -2.90524496       2.38766117       0.00000000
