10
Lattice="16.290000149 0.0 0.0 0.0 16.290000149 0.0 0.0 0.0 29.1751946751" Properties=species:S:1:pos:R:3:initial_magmoms:R:1 pbc="T T T"
Si       1.76814920       1.00284499       1.15705905       0.00000000
Si       1.33474560      -1.30974859      -1.42281589       0.00000000
Si      -1.23742099       1.48735846      -1.35956407       0.00000000
Si      -1.29148750      -1.28906029       1.50491489       0.00000000
H       -3.16755795      -0.79456105      -1.58558431       0.00000000
Si      -2.30422052       0.46877733       2.76817165       0.00000000
Si      -2.51240672       0.02552643      -2.66060270       0.00000000
Si       3.41720220      -0.65388061       1.25301626       0.00000000
Si       2.75672415      -2.53008137      -0.04761392       0.00000000
Si       2.68583006       2.73507474      -0.12128128       0.00000000
