10
Lattice="16.290000149 0.0 0.0 0.0 16.290000149 0.0 0.0 0.0 29.1751946751" Properties=species:S:1:pos:R:3:initial_magmoms:R:1 pbc="T T T"
Si      -1.34472322      -1.32660874      -1.40706129       0.00000000
Si      -1.38725641       1.34969167       1.35197852       0.00000000
Si       1.35441577       1.34739478      -1.39340730       0.00000000
Si       1.38724517      -1.35697330       1.35440006       0.00000000
Si      -2.68418477      -2.67934664      -0.03833621       0.00000000
Si       0.03148857       2.71370225       2.66101116       0.00000000
Si       2.65997783      -2.71650413      -0.06902851       0.00000000
Si      -2.72108162       2.66633093      -0.08735053       0.00000000
Si       2.75105685       0.05478327       2.66176971       0.00000000
Si      -2.73733905      -0.04364091       2.69654654       0.00000000
