10
Lattice="16.290000149 0.0 0.0 0.0 16.290000149 0.0 0.0 0.0 29.1751946751" Properties=species:S:1:pos:R:3:initial_magmoms:R:1 pbc="T T T"
Si      -1.38267892       1.35914476      -1.32207395       0.00000000
Si      -1.37694484      -1.35542575       1.33213939       0.00000000
Si       1.34996860       1.36987010       1.35121997       0.00000000
Si       1.35060391      -1.37673307      -1.34853585       0.00000000
Si      -0.00741195      -2.69733080       2.68534327       0.00000000
Si      -0.03383433       2.73251721      -2.65908559       0.00000000
Si      -2.73818612      -0.01221750      -2.66071940       0.00000000
Si       2.72427446       0.02239875       2.68709378       0.00000000
Si      -2.69693984       0.01309716       2.71583135       0.00000000
Si       2.73064386      -0.03373659      -2.68368028       0.00000000
