10
Lattice="16.290000149 0.0 0.0 0.0 16.290000149 0.0 0.0 0.0 29.1751946751" Properties=species:S:1:pos:R:3:initial_magmoms:R:1 pbc="T T T"
Si       1.32480055       1.33657773       1.33723046       0.00000000
Si      -1.41734404       1.34234439      -1.25434373       0.00000000
Si       1.23149143      -1.20109967      -1.59606987       0.00000000
Si      -1.46046367      -1.43702774       1.21431537       0.00000000
Si      -2.45689040      -0.51022447      -2.20840761       0.00000000
Si      -0.71009740      -2.05246394      -2.65893913       0.00000000
Si       2.62421449       2.62641506      -0.13535832       0.00000000
Si       2.64164230      -0.09883681       2.61294502       0.00000000
Si       2.53244342      -2.73104019      -0.27836053       0.00000000
Si      -0.11787444       2.66821520       2.62020965       0.00000000
