10
Lattice="16.290000149 0.0 0.0 0.0 16.290000149 0.0 0.0 0.0 29.1751946751" Properties=species:S:1:pos:R:3:initial_magmoms:R:1 pbc="T T T"
Si      -1.37137366       1.35648460       1.33263537       0.00000000
Si      -1.37318185      -1.34749252      -1.34299256       0.00000000
Si       1.35003376       1.36477621      -1.35641315       0.00000000
Si       1.36896274      -1.34439742       1.36376530       0.00000000
Si      -0.00348606       2.71438643       2.66101116       0.00000000
Si      -0.01339038      -2.70499851      -2.68236740       0.00000000
Si       2.71925714      -2.69427317      -0.00907349       0.00000000
Si       2.72113049       0.01902672      -2.69491273       0.00000000
Si      -2.70330923       0.02234988      -2.71533537       0.00000000
Si      -2.71744895      -2.70265763       0.02261078       0.00000000
