10
Lattice="16.290000149 0.0 0.0 0.0 16.290000149 0.0 0.0 0.0 29.1751946751" Properties=species:S:1:pos:R:3:initial_magmoms:R:1 pbc="T T T"
Si      -0.60903424       0.41093154      -2.14980339       0.00000000
Si       1.49330431      -1.79593994       0.06441883       0.00000000
Si       0.99463483       1.97920244       0.88873478       0.00000000
Si      -2.11336688      -0.59113153       1.01523842       0.00000000
H        0.19420938      -0.81461404       2.77739101       0.00000000
H        0.76080817      -1.30407967       2.55385067       0.00000000
H        2.29286639       1.52301727       1.52542505       0.00000000
H        2.89597107       1.46618146      -0.85766320       0.00000000
Si      -2.35260182       1.54930933       1.90496516       0.00000000
Si      -0.14502987      -3.31641597       0.85147806       0.00000000
