10
Lattice="16.290000149 0.0 0.0 0.0 16.290000149 0.0 0.0 0.0 29.1751946751" Properties=species:S:1:pos:R:3:initial_magmoms:R:1 pbc="T T T"
Si       0.49123636      -0.65751328       2.24217206       0.00000000
Si      -2.00078669       1.38217393       0.12195231       0.00000000
Si       1.12555919       2.07638858      -0.59771221       0.00000000
Si      -1.28684485      -1.54904869      -1.39186101       0.00000000
Si       2.14058747      -1.38769624      -1.02705438       0.00000000
H       -1.07986411       1.12617658      -2.42868908       0.00000000
H       -2.70251102      -1.23890338      -0.88733437       0.00000000
H       -1.57454254       2.66470193      -0.55981364       0.00000000
Si      -0.04354317       2.23427126      -2.61873630       0.00000000
H        3.34135596      -1.02690532      -0.13969083       0.00000000
