10
Lattice="16.290000149 0.0 0.0 0.0 16.290000149 0.0 0.0 0.0 29.1751946751" Properties=species:S:1:pos:R:3:initial_magmoms:R:1 pbc="T T T"
Si      -1.36363591      -1.36186030       1.32951362       0.00000000
Si       1.33626871      -1.44094825      -1.28898928       0.00000000
Si       1.38023542       1.34376211       1.35717171       0.00000000
Si      -1.38481291       1.35661492      -1.33984164       0.00000000
Si       2.69200397      -0.10142154      -2.60553744       0.00000000
Si       0.02028105      -2.69993720       2.67956658       0.00000000
Si      -2.71368596       0.00314397       2.68519739       0.00000000
Si      -0.03476286       2.75100168      -2.65108575       0.00000000
Si      -2.69858513      -2.71313210      -0.06453553       0.00000000
Si      -2.70855461       2.70827768       0.04498815       0.00000000
