10
Lattice="16.290000149 0.0 0.0 0.0 16.290000149 0.0 0.0 0.0 29.1751946751" Properties=species:S:1:pos:R:3:initial_magmoms:R:1 pbc="T T T"
Si       1.36774099      -1.35720136       1.32744218       0.00000000
Si       1.36840888       1.34390872      -1.34272998       0.00000000
Si      -1.34040637      -1.36278883      -1.36496148       0.00000000
Si      -1.31810536       1.36322866       1.39040225       0.00000000
Si      -0.01389537       2.68969079      -2.67880802       0.00000000
Si      -0.00750969      -2.68796405       2.68204647       0.00000000
Si       2.71560818       0.00441459       2.67647401       0.00000000
Si      -2.69910153      -2.71472852      -0.00247989       0.00000000
Si      -2.69131654      -0.00368154      -2.72487566       0.00000000
Si       2.71845893      -0.02109555      -2.69841376       0.00000000
