10
Lattice="16.290000149 0.0 0.0 0.0 16.290000149 0.0 0.0 0.0 29.1751946751" Properties=species:S:1:pos:R:3:initial_magmoms:R:1 pbc="T T T"
Si      -1.45647262      -1.29914380       1.30299337       0.00000000
Si       1.37028223      -1.38733786      -1.31095820       0.00000000
Si      -1.36236529       1.32563134      -1.38124124       0.00000000
Si       1.38329794       1.35117406       1.33925814       0.00000000
Si      -0.05320314       2.72267804       2.57377732       0.00000000
Si      -0.21592395      -2.68877855       2.67556958       0.00000000
Si       2.72473058       2.68304447      -0.03419333       0.00000000
Si       2.72430704      -0.04030146      -2.68543079       0.00000000
Si       0.01008351      -2.73315252      -2.67848710       0.00000000
Si      -0.00889434       2.67747329      -2.74284758       0.00000000
