10
Lattice="16.290000149 0.0 0.0 0.0 16.290000149 0.0 0.0 0.0 29.1751946751" Properties=species:S:1:pos:R:3:initial_magmoms:R:1 pbc="T T T"
Si      -1.35883036      -0.57407590      -0.27480116       0.00000000
H        0.89730208      -1.77132575      -0.45644592       0.00000000
H        1.60801849      -0.85532275       1.16560738       0.00000000
Si       1.06207543      -1.10581408       2.55145830       0.00000000
Si      -2.72101646       0.77322115       1.05316618       0.00000000
Si      -1.82188991      -0.15618852      -2.48884833       0.00000000
Si       2.02766519      -1.83347210      -1.46021849       0.00000000
Si      -1.17817426       2.08508744       2.24170526       0.00000000
Si       0.00351864       1.14130999      -3.12696819       0.00000000
Si      -1.80529040      -2.78576922       0.32865857       0.00000000
