10
Lattice="16.290000149 0.0 0.0 0.0 16.290000149 0.0 0.0 0.0 29.1751946751" Properties=species:S:1:pos:R:3:initial_magmoms:R:1 pbc="T T T"
Si       1.40090743       1.41570364       1.25748007       0.00000000
Si      -1.26094375       1.39030590      -1.43171433       0.00000000
Si       1.42974073      -1.28218591      -1.41164179       0.00000000
Si      -1.29876913      -1.58685778       1.27714415       0.00000000
Si       0.28331568      -2.67146228       2.59481264       0.00000000
Si      -2.52781706      -2.72789084      -0.34738904       0.00000000
Si      -2.58538592       2.78296734      -0.06742387       0.00000000
Si       2.87067089       0.12536051       2.53021876       0.00000000
Si      -2.56824884       0.07613946      -2.87670337       0.00000000
Si       2.86937675      -2.63070470      -0.12557004       0.00000000
