10
Lattice="16.290000149 0.0 0.0 0.0 16.290000149 0.0 0.0 0.0 29.1751946751" Properties=species:S:1:pos:R:3:initial_magmoms:R:1 pbc="T T T"
Si      -1.31236947      -1.33499076       1.36563251       0.00000000
Si      -1.46976346       1.29034313      -1.27273869       0.00000000
Si       1.22915237       1.36131866       1.44673955       0.00000000
Si       1.37789799      -1.39694163      -1.29777101       0.00000000
Si       2.61088158      -0.08727449       2.60391530       0.00000000
Si      -0.08734517       2.62857804      -2.65301715       0.00000000
Si       2.63912844       2.65460946       0.05738761       0.00000000
Si      -2.61446177       0.07753095       2.70608683       0.00000000
Si       2.71476291      -0.04684271      -2.66769228       0.00000000
Si      -2.58735521      -2.79682280       0.06459388       0.00000000
