10
Lattice="16.290000149 0.0 0.0 0.0 16.290000149 0.0 0.0 0.0 29.1751946751" Properties=species:S:1:pos:R:3:initial_magmoms:R:1 pbc="T T T"
Si       1.35402481      -1.35726652       1.30547326       0.00000000
Si       1.37065690       1.25434630      -1.43226866       0.00000000
Si      -1.31279482      -1.42889365      -1.32166549       0.00000000
Si      -1.19806435       1.40263417       1.47358073       0.00000000
Si      -2.56455753       2.64052757       0.02471139       0.00000000
Si       2.72121194       2.59708214      -0.12028933       0.00000000
Si      -2.64072794      -0.07027506      -2.68884429       0.00000000
Si      -2.56406068      -0.02616174       2.77208112       0.00000000
Si       2.74276362      -0.00552231       2.59805109       0.00000000
Si       0.00588069      -2.66545127       2.69651737       0.00000000
