10
Lattice="16.290000149 0.0 0.0 0.0 16.290000149 0.0 0.0 0.0 29.1751946751" Properties=species:S:1:pos:R:3:initial_magmoms:R:1 pbc="T T T"
Si       1.31997383      -1.33672483      -1.40574840       0.00000000
Si       1.39614424       1.37407780       1.30780728       0.00000000
Si      -1.34153038       1.36635634      -1.37333476       0.00000000
Si      -1.35441577      -1.34739478       1.39340730       0.00000000
Si      -0.00570150       2.69330717       2.61832785       0.00000000
Si       2.64790694      -2.69534342      -0.03856961       0.00000000
Si      -2.69913899      -2.67400352      -0.01365399       0.00000000
Si      -2.72476316       2.71049312      -0.03731507       0.00000000
Si       2.66991473       0.02958264      -2.76907608       0.00000000
Si       0.03282940      -2.70436808       2.74780736       0.00000000
