10
Lattice="16.28999089631971 0.0 0.0 0.0 16.28999089631971 0.0 0.0 0.0 34.2284985734139" Properties=species:S:1:pos:R:3:initial_magmoms:R:1 pbc="T T T"
Si       1.35718506       1.35433431       1.35695536       0.00000000
Si       1.35713619      -1.35735773      -1.35722918       0.00000000
Si      -1.35782037       1.35762489      -1.35740033       0.00000000
Si      -1.35959598      -1.35796209       1.35681844       0.00000000
Si      -2.71551042       0.00201996       2.71230197       0.00000000
Si      -0.00004887       2.71456560      -2.71456105       0.00000000
Si       2.71480995       2.71461447      -0.00020537       0.00000000
Si      -2.71533123       2.71471221       0.00058188       0.00000000
Si       2.71513575      -2.71526980      -0.00017114       0.00000000
Si      -2.71542897      -2.71504197       0.00020537       0.00000000
