10
Lattice="16.28999089631971 0.0 0.0 0.0 16.28999089631971 0.0 0.0 0.0 34.2284985734139" Properties=species:S:1:pos:R:3:initial_magmoms:R:1 pbc="T T T"
Si      -1.36013355       1.35488817      -1.36137083       0.00000000
Si       1.35684297      -1.36216980      -1.36161043       0.00000000
Si       1.35972630       1.36440153       1.36205540       0.00000000
Si      -1.37772675      -1.36681245       1.37307699       0.00000000
Si      -0.12121389       2.58225822       2.74697546       0.00000000
Si       2.64556116      -0.06146217       2.71829196       0.00000000
Si       2.71386513       2.71376739      -0.00232754       0.00000000
Si      -2.71585251      -2.71448415      -0.00626382       0.00000000
Si      -0.00068418       2.71376739      -2.71822350       0.00000000
Si      -2.71492398       2.71738377      -0.00386782       0.00000000
