10
Lattice="16.28999089631971 0.0 0.0 0.0 16.28999089631971 0.0 0.0 0.0 34.2284985734139" Properties=species:S:1:pos:R:3:initial_magmoms:R:1 pbc="T T T"
Si      -1.28583486       1.42586370      -1.35623656       0.00000000
Si       1.42229619      -1.31843115      -1.35117074       0.00000000
Si      -1.67348799      -1.05251319       1.31659993       0.00000000
Si       1.72603953       1.07189829       1.24270056       0.00000000
Si      -0.50766156      -1.73161071       3.29018204       0.00000000
Si      -3.39807771       0.77489901       1.48356664       0.00000000
Si      -2.64556116       0.06146217      -2.71829196       0.00000000
Si       0.07135020      -2.65440663      -2.72322087       0.00000000
Si       3.43963350      -0.82877004       1.43995951       0.00000000
Si      -2.76677505       2.64372039       0.02868350       0.00000000
