10
Lattice="16.28999089631971 0.0 0.0 0.0 16.28999089631971 0.0 0.0 0.0 34.2284985734139" Properties=species:S:1:pos:R:3:initial_magmoms:R:1 pbc="T T T"
Si       1.40972031      -1.28822949       1.27690170       0.00000000
Si       0.77045184       1.76723694      -1.27243967       0.00000000
Si      -1.35146727       1.43723412       1.28647884       0.00000000
Si      -1.02509712      -1.47808944      -1.59711774       0.00000000
Si       0.65673135       0.46403694      -3.36926501       0.00000000
Si      -2.61620658      -2.54531250      -0.07746940       0.00000000
Si       0.01185912      -2.62379772       2.64257848       0.00000000
Si      -2.70107748       0.09448200       2.64815773       0.00000000
Si       2.66541867       2.69689095      -0.10740567       0.00000000
Si       2.73352716       0.09343944       2.64473488       0.00000000
