10
Lattice="16.28999089631971 0.0 0.0 0.0 16.28999089631971 0.0 0.0 0.0 34.2284985734139" Properties=species:S:1:pos:R:3:initial_magmoms:R:1 pbc="T T T"
Si       0.31599342       1.76174721       1.53833227       0.00000000
Si       0.20601963      -1.77023430       1.61753706       0.00000000
Si      -2.26035153       0.44527086      -0.73628964       0.00000000
Si       1.12135473      -0.37567998      -2.11788953       0.00000000
Si      -1.78220745       1.31476590       2.68498761       0.00000000
Si       0.28574289       3.84316938       0.38904133       0.00000000
Si       1.55132928      -3.49555707       0.66321176       0.00000000
Si      -3.56565294      -1.42386003      -0.82610527       0.00000000
Si       0.21745521       1.01502990      -3.82294891       0.00000000
Si      -1.91858733      -2.63933838       2.33818427       0.00000000
