10
Lattice="16.28999089631971 0.0 0.0 0.0 16.28999089631971 0.0 0.0 0.0 34.2284985734139" Properties=species:S:1:pos:R:3:initial_magmoms:R:1 pbc="T T T"
Si       0.11787444       2.28239190       0.34502346       0.00000000
Si       1.05969708      -1.18223046      -1.77245533       0.00000000
Si      -1.19817837      -0.88314606       1.87075964       0.00000000
Si       1.35573525      -0.40970979       2.01937986       0.00000000
Si       0.88638777      -3.13321860      -0.49651888       0.00000000
Si      -1.78365726       2.64266154      -0.93998355       0.00000000
Si       3.08970801       0.08021196      -1.82366119       0.00000000
Si       1.88998209      -2.67183693       1.53778461       0.00000000
Si      -2.02616649       1.28682855      -2.78103283       0.00000000
Si      -0.71016255       2.72652246       2.55132525       0.00000000
