10
Lattice="16.28999089631971 0.0 0.0 0.0 16.28999089631971 0.0 0.0 0.0 34.2284985734139" Properties=species:S:1:pos:R:3:initial_magmoms:R:1 pbc="T T T"
Si      -1.34961021      -1.34275212       1.36167889       0.00000000
Si       1.35146727      -1.43723412      -1.28647884       0.00000000
Si      -1.30670235       1.28085012      -1.48613036       0.00000000
Si       1.36575360       1.37143881       1.35479896       0.00000000
Si       2.12191911       0.33000282      -2.55891851       0.00000000
Si       0.57348945       2.17955313      -2.66281404       0.00000000
Si      -2.69749368      -2.69120574      -0.00145813       0.00000000
Si       0.00775404      -2.69804754       2.71504025       0.00000000
Si      -2.70708849       0.01273878       2.71435568       0.00000000
Si      -2.71075374       2.72424725      -0.04077643       0.00000000
