10
Lattice="16.28999089631971 0.0 0.0 0.0 16.28999089631971 0.0 0.0 0.0 34.2284985734139" Properties=species:S:1:pos:R:3:initial_magmoms:R:1 pbc="T T T"
Si      -1.38823380       1.29731931       1.34915125       0.00000000
Si      -1.35014778      -1.32980157      -1.35880370       0.00000000
Si       1.36521603       1.38409614      -1.35360096       0.00000000
Si       1.21173165      -1.51599627       1.41586263       0.00000000
Si       0.48790179       2.04296541       2.49649117       0.00000000
Si       2.12447664       0.19911267       2.66445050       0.00000000
Si      -2.69749368      -2.69933445       0.02515796       0.00000000
Si       2.71746522      -2.68312590       0.00982358       0.00000000
Si       0.00478926      -2.68793145      -2.71377380       0.00000000
Si      -2.70876310       0.02663415      -2.71421877       0.00000000
