10
Lattice="16.28999089631971 0.0 0.0 0.0 16.28999089631971 0.0 0.0 0.0 34.2284985734139" Properties=species:S:1:pos:R:3:initial_magmoms:R:1 pbc="T T T"
Si      -1.06377284      -2.01562590       0.68607641       0.00000000
Si      -1.02606475       2.10035930       0.46461790       0.00000000
Si      -0.10106316       0.17828591      -2.38637803       0.00000000
Si       1.97830647      -0.13546275       1.37471996       0.00000000
Si      -2.46207779       0.75985520      -2.37316582       0.00000000
Si       3.13299054      -1.75084824      -0.03234595       0.00000000
Si      -3.20056865       1.74878851      -0.31486813       0.00000000
Si      -1.98668672      -2.97367338      -1.29414603       0.00000000
Si       2.83568175       2.06724172       1.61880352       0.00000000
Si      -0.38883090       3.65093924      -1.25016238       0.00000000
