10
Lattice="16.28999089631971 0.0 0.0 0.0 16.28999089631971 0.0 0.0 0.0 34.2284985734139" Properties=species:S:1:pos:R:3:initial_magmoms:R:1 pbc="T T T"
Si       1.27216755       1.70736209      -1.01552589       0.00000000
Si       1.09139742      -1.95392034      -0.75265088       0.00000000
Si       0.40553955      -0.14747337       2.34259975       0.00000000
Si      -2.19072807      -0.26080290      -1.21405129       0.00000000
Si      -2.82851415       1.78166078      -0.01143232       0.00000000
Si       1.17543753      -1.17289629      -2.92718861       0.00000000
Si       2.79524997       0.39775686      -2.21742606       0.00000000
Si      -1.11770577      -0.63832365      -3.35415514       0.00000000
Si      -0.62340201      -2.24337735       2.82364734       0.00000000
Si      -3.06525998      -2.23153452      -0.28276178       0.00000000
