10
Lattice="16.28999089631971 0.0 0.0 0.0 16.28999089631971 0.0 0.0 0.0 34.2284985734139" Properties=species:S:1:pos:R:3:initial_magmoms:R:1 pbc="T T T"
Si       1.75602942       1.08725813      -1.08529593       0.00000000
Si      -1.31171967       1.39694732       1.42826363       0.00000000
Si       1.40050017      -1.30871484       1.43697821       0.00000000
Si      -1.00519074      -1.76446017      -1.29463348       0.00000000
Si       0.43153839       2.02303718      -2.86952181       0.00000000
Si       3.43684791      -0.75335874      -1.26490594       0.00000000
Si       2.63450025      -2.69953875       0.00886861       0.00000000
Si      -2.72816775       2.62791746      -0.01089494       0.00000000
Si       0.69126615      -3.51970767      -1.31866190       0.00000000
Si      -2.65663836       0.04503696       2.79904388       0.00000000
