10
Lattice="16.28999089631971 0.0 0.0 0.0 16.28999089631971 0.0 0.0 0.0 34.2284985734139" Properties=species:S:1:pos:R:3:initial_magmoms:R:1 pbc="T T T"
Si      -1.35246096       1.35762000       1.35640770       0.00000000
Si      -1.35457866      -1.35828511      -1.35740033       0.00000000
Si       1.36014984       1.35700098      -1.35709227       0.00000000
Si       1.36314720      -1.35952048       1.36414334       0.00000000
Si      -2.69351892      -0.00528611       2.71996916       0.00000000
Si      -0.00151497       2.69359548       2.72845783       0.00000000
Si      -2.71252935       2.71131900      -0.00027383       0.00000000
Si      -2.71257822      -0.00037304      -2.71445837       0.00000000
Si       0.00276930       2.71467474      -2.71452682       0.00000000
Si       0.00272043      -2.71537588      -2.71404763       0.00000000
