10
Lattice="16.28999089631971 0.0 0.0 0.0 16.28999089631971 0.0 0.0 0.0 34.2284985734139" Properties=species:S:1:pos:R:3:initial_magmoms:R:1 pbc="T T T"
Si       1.89921852      -1.41184778      -0.09039752       0.00000000
Si       0.17156628       1.46730546      -1.85669171       0.00000000
Si      -1.79776440      -1.45929241      -0.56949408       0.00000000
Si      -1.43452998      -0.97001900       2.36642280       0.00000000
Si      -3.20341221       0.27837981      -1.32279530       0.00000000
Si      -2.28468879       2.56463244       1.59758184       0.00000000
Si      -2.05149744       2.01719070      -2.46472710       0.00000000
Si       1.61487657       3.26197476      -1.25454363       0.00000000
Si       3.47020983      -0.65233305       1.53569668       0.00000000
Si      -0.11859120      -2.99008556       2.49905831       0.00000000
