10
Lattice="16.28999089631971 0.0 0.0 0.0 16.28999089631971 0.0 0.0 0.0 34.2284985734139" Properties=species:S:1:pos:R:3:initial_magmoms:R:1 pbc="T T T"
Si       1.35508365      -1.35746199       1.36195272       0.00000000
Si      -1.36019871       1.35990549       1.36253460       0.00000000
Si       1.36270737       1.35933534      -1.36699800       0.00000000
Si      -1.36897902      -1.36586763      -1.36537215       0.00000000
Si      -0.05033610       2.69475696      -2.72464820       0.00000000
Si       2.71134018      -2.71441899       0.00184834       0.00000000
Si       2.71150308       2.71717200       0.00280674       0.00000000
Si      -2.71542897       2.71528236       0.00564771       0.00000000
Si      -2.71389771      -2.71777799       0.00540811       0.00000000
Si       2.71280628       0.00127062       2.71907922       0.00000000
