10
Lattice="16.28999089631971 0.0 0.0 0.0 16.28999089631971 0.0 0.0 0.0 34.2284985734139" Properties=species:S:1:pos:R:3:initial_magmoms:R:1 pbc="T T T"
Si       1.83888036       0.93745692      -1.33251619       0.00000000
Si      -0.78483591      -1.99084977      -1.30687903       0.00000000
Si      -1.71359397       1.90066833      -0.19725895       0.00000000
Si       2.35369323       0.88762581       1.65844014       0.00000000
Si      -1.24582662      -0.03569139       3.14991357       0.00000000
Si      -2.01733731      -0.48966111      -2.79113025       0.00000000
Si       0.69595767       2.25026802      -2.83970051       0.00000000
Si       2.44758879       2.81276172       0.09607945       0.00000000
Si      -3.43963350       0.82877004      -1.43995951       0.00000000
Si       1.06769547       0.43473123       3.70424441       0.00000000
