10
Lattice="16.28999089631971 0.0 0.0 0.0 16.28999089631971 0.0 0.0 0.0 34.2284985734139" Properties=species:S:1:pos:R:3:initial_magmoms:R:1 pbc="T T T"
Si       0.18792144      -1.34749251       1.92864006       0.00000000
Si       0.78472188      -1.51374825      -1.68363233       0.00000000
Si       1.35378045       1.94523777      -0.40680593       0.00000000
Si      -2.22277050       1.00453914       0.44699021       0.00000000
Si       1.83233178       0.13716180      -3.02566405       0.00000000
Si       1.71009162       2.52853380       1.89389811       0.00000000
Si      -1.92309966      -0.96306480       3.08121694       0.00000000
Si      -2.85276996       1.90418697      -1.67945645       0.00000000
Si       3.32267130       1.21498965      -1.59477510       0.00000000
Si       1.41965721      -0.37326906       3.65854934       0.00000000
