10
Lattice="16.28999089631971 0.0 0.0 0.0 16.28999089631971 0.0 0.0 0.0 34.2284985734139" Properties=species:S:1:pos:R:3:initial_magmoms:R:1 pbc="T T T"
Si      -2.26486386      -0.32257458       0.43353841       0.00000000
Si       1.41073029      -1.54469925      -1.03469386       0.00000000
Si       0.21387141       2.18693250      -0.79533384       0.00000000
Si       0.79198722       0.02516805       2.21290790       0.00000000
Si      -2.79911070       1.93955256       0.91513365       0.00000000
Si      -0.03258000      -3.33936855      -1.63684195       0.00000000
Si      -3.26845818      -0.78395625      -1.60076509       0.00000000
Si      -0.98482824       3.51823275       0.76404897       0.00000000
Si       2.19405123       3.00954492       0.33985495       0.00000000
Si      -0.85388922      -1.01540457       3.49976325       0.00000000
