10
Lattice="16.28999089631971 0.0 0.0 0.0 16.28999089631971 0.0 0.0 0.0 34.2284985734139" Properties=species:S:1:pos:R:3:initial_magmoms:R:1 pbc="T T T"
Si      -1.33842780      -1.29319794      -1.43037693       0.00000000
Si      -1.31474214       1.39118229       1.40623073       0.00000000
Si       1.39176710      -1.32519150       1.41125205       0.00000000
Si       1.54973123       1.34713413      -1.27575754       0.00000000
Si      -2.58000273      -2.66263308       0.05046653       0.00000000
Si       2.72479409      -2.61200376      -0.07499468       0.00000000
Si       0.18697010      -2.33347734      -2.99660545       0.00000000
Si      -2.93548311       0.21398544      -2.44833305       0.00000000
Si       0.23478288       2.50069419      -2.90901467       0.00000000
Si      -2.67041223       0.03181437       2.78025927       0.00000000
