10
Lattice="16.28999089631971 0.0 0.0 0.0 16.28999089631971 0.0 0.0 0.0 34.2284985734139" Properties=species:S:1:pos:R:3:initial_magmoms:R:1 pbc="T T T"
Si      -0.28867509       2.18383740      -0.83226641       0.00000000
Si       1.19869965      -1.33130025      -1.55938281       0.00000000
Si      -1.81428246      -1.57868019       0.15108468       0.00000000
Si       1.82573433       0.38260323       1.61202627       0.00000000
Si       3.17887947      -0.50868783      -0.42419402       0.00000000
Si      -2.02903353       1.80731034       2.29731542       0.00000000
Si      -3.05214327       1.11342150      -1.52327172       0.00000000
Si       0.98482824      -3.51823275      -0.76404897       0.00000000
Si      -0.97889868       3.45624930       1.03301666       0.00000000
Si       1.86061122       2.86852239      -1.57680512       0.00000000
