10
Lattice="16.28999089631971 0.0 0.0 0.0 16.28999089631971 0.0 0.0 0.0 34.2284985734139" Properties=species:S:1:pos:R:3:initial_magmoms:R:1 pbc="T T T"
Si       1.41682275      -1.27475766       1.38135687       0.00000000
Si      -1.27744551       1.46616627       1.38780894       0.00000000
Si       1.71789453       1.01390589      -1.34205024       0.00000000
Si      -1.89496683      -0.92965401      -1.16503400       0.00000000
Si       3.41435142      -0.74134161      -1.36607866       0.00000000
Si      -3.44339649       0.91989630      -1.26892953       0.00000000
Si       0.68243697       0.93483423      -3.60431567       0.00000000
Si       0.06810849      -2.60345151       2.75214054       0.00000000
Si      -2.59374267       2.76719600      -0.05398180       0.00000000
Si      -2.66541867      -2.69689095       0.10740567       0.00000000
