10
Lattice="16.28999089631971 0.0 0.0 0.0 16.28999089631971 0.0 0.0 0.0 34.2284985734139" Properties=species:S:1:pos:R:3:initial_magmoms:R:1 pbc="T T T"
Si      -1.34871426      -1.32869385       1.37078368       0.00000000
Si      -1.41682275       1.27475766      -1.38135687       0.00000000
Si       1.36254447       1.38963474       1.36999642       0.00000000
Si       1.35887922      -1.38049605      -1.46221489       0.00000000
Si       1.99752867       0.53341605      -2.74743553       0.00000000
Si       0.30107178       2.28866355      -2.72340711       0.00000000
Si      -2.67252111      -2.71036278       0.00295050       0.00000000
Si       2.73170268      -2.67232563       0.00242680       0.00000000
Si       0.00229689      -2.68477119       2.72681486       0.00000000
Si      -2.69426826       2.74092393       0.00645208       0.00000000
