10
Lattice="16.28999089631971 0.0 0.0 0.0 16.28999089631971 0.0 0.0 0.0 34.2284985734139" Properties=species:S:1:pos:R:3:initial_magmoms:R:1 pbc="T T T"
Si      -1.34912151      -1.34604270      -1.37424076       0.00000000
Si       1.36919079       1.36618327      -1.36934608       0.00000000
Si      -1.46207637       1.23748614       1.41647875       0.00000000
Si       1.22585508      -1.54416168       1.40627865       0.00000000
Si       0.12189807       2.11663205       2.86116179       0.00000000
Si      -2.68747533       2.72041764      -0.01352026       0.00000000
Si      -2.71015101      -2.69979057      -0.00889941       0.00000000
Si       2.71072116      -2.72007162      -0.01273301       0.00000000
Si      -2.70642060       0.00824274      -2.73259948       0.00000000
Si       0.00718389      -2.70666495      -2.73362634       0.00000000
