10
Lattice="16.28999089631971 0.0 0.0 0.0 16.28999089631971 0.0 0.0 0.0 34.2284985734139" Properties=species:S:1:pos:R:3:initial_magmoms:R:1 pbc="T T T"
Si       0.19279215      -2.25391698      -0.44945467       0.00000000
Si      -1.90404036       0.66422475       1.15637624       0.00000000
Si       2.07018207      -0.23863221       1.16157898       0.00000000
Si       1.37005416       1.37717289      -1.53367719       0.00000000
Si       2.58049890      -2.10852873      -0.34019724       0.00000000
Si      -1.00712925      -2.99589390       1.63999097       0.00000000
Si       1.54790838       3.24153081      -0.10870977       0.00000000
Si       2.37858435       2.02284333       1.79932472       0.00000000
Si      -1.82470806       2.97255033       1.28576004       0.00000000
Si       3.32058618      -0.25616025      -1.66107574       0.00000000
