10
Lattice="16.28999089631971 0.0 0.0 0.0 16.28999089631971 0.0 0.0 0.0 34.2284985734139" Properties=species:S:1:pos:R:3:initial_magmoms:R:1 pbc="T T T"
Si       1.37925801       1.75560818      -0.72167407       0.00000000
Si      -0.17785422      -1.86435792      -1.42496742       0.00000000
Si      -2.12069736       1.11185507       0.07858868       0.00000000
Si       0.83067597      -1.21868748       1.90803449       0.00000000
Si      -1.54790838      -3.24153081       0.10870977       0.00000000
Si      -3.37261644      -0.26898048       1.39446981       0.00000000
Si       0.52227369      -3.48016302       1.27028875       0.00000000
Si       1.41667614       3.35574719       0.99129210       0.00000000
Si       3.55524363       0.95709681      -1.26207390       0.00000000
Si       3.14911764      -0.79904079       2.20609642       0.00000000
