10
Lattice="16.28999089631971 0.0 0.0 0.0 16.28999089631971 0.0 0.0 0.0 34.2284985734139" Properties=species:S:1:pos:R:3:initial_magmoms:R:1 pbc="T T T"
Si      -0.46209843      -0.60826601      -2.28877548       0.00000000
Si       2.01229948       0.80768101       1.11886654       0.00000000
Si      -0.80234766      -1.94618000       1.27377455       0.00000000
Si      -1.68081849       1.84061687       0.17961000       0.00000000
Si      -2.03634774      -0.55535609       2.70188415       0.00000000
Si       0.71414173       2.15330342       2.69769115       0.00000000
Si      -3.43684791       0.75335874       1.26490594       0.00000000
Si      -0.57767598       3.53889824       1.33155571       0.00000000
Si      -2.74558176      -2.76634892      -0.05375596       0.00000000
Si      -1.88869518       1.24757942      -3.25535459       0.00000000
