10
Lattice="16.28999089631971 0.0 0.0 0.0 16.28999089631971 0.0 0.0 0.0 34.2284985734139" Properties=species:S:1:pos:R:3:initial_magmoms:R:1 pbc="T T T"
Si       1.14299178       1.39242033       1.65049912       0.00000000
Si       1.39502740      -1.28501547      -1.55773984       0.00000000
Si      -1.33859817       1.41706710      -1.53603896       0.00000000
Si      -0.57058983      -2.07134192       1.30965154       0.00000000
Si       1.32646116      -0.53849853       3.28028999       0.00000000
Si       2.76969815       2.61255762       0.10662183       0.00000000
Si      -2.61394227      -2.79155933      -0.00208794       0.00000000
Si       2.71076093      -2.74340609      -0.22823576       0.00000000
Si       0.03001449      -2.65641547      -2.93235711       0.00000000
Si      -2.68183899       0.05791095      -2.92852352       0.00000000
