10
Lattice="16.28999089631971 0.0 0.0 0.0 16.28999089631971 0.0 0.0 0.0 34.2284985734139" Properties=species:S:1:pos:R:3:initial_magmoms:R:1 pbc="T T T"
Si      -1.33812576      -1.34767170      -1.37934081       0.00000000
Si       1.33517727      -1.43237970       1.33354305       0.00000000
Si       1.37772675       1.36681245      -1.37307699       0.00000000
Si      -1.31585733       1.20423825       1.66436167       0.00000000
Si       2.34979992       0.25283709       2.66181491       0.00000000
Si       0.62521020       2.08024929       2.82878162       0.00000000
Si      -2.69052808      -2.69333484       0.00000000       0.00000000
Si      -2.69267673       2.70511740       0.01875723       0.00000000
Si      -2.69694308       0.00550602      -2.73468742       0.00000000
Si       0.01778868      -2.70765375      -2.73482434       0.00000000
