10
Lattice="16.28999089631971 0.0 0.0 0.0 16.28999089631971 0.0 0.0 0.0 34.2284985734139" Properties=species:S:1:pos:R:3:initial_magmoms:R:1 pbc="T T T"
Si       0.91613331       1.52865360       1.52231332       0.00000000
Si      -2.19978531       0.81889830      -0.06558184       0.00000000
Si       0.61493121      -1.90279743       1.24146834       0.00000000
Si       1.02889269       0.09032805      -2.14349246       0.00000000
Si       3.16558683      -0.05121576      -1.20433040       0.00000000
Si       2.78474292      -1.92356718       0.20146906       0.00000000
Si       1.39206195       3.32677638       0.16659020       0.00000000
Si       0.48741309      -1.00825326       3.44034254       0.00000000
Si      -2.99266848      -0.03417642      -2.07572000       0.00000000
Si      -3.13512453       0.05183478       1.94643889       0.00000000
