10
Lattice="16.28999089631971 0.0 0.0 0.0 16.28999089631971 0.0 0.0 0.0 34.2284985734139" Properties=species:S:1:pos:R:3:initial_magmoms:R:1 pbc="T T T"
Si      -0.61493121       1.90279743      -1.24146834       0.00000000
Si      -1.27327527      -1.95056038      -0.43610554       0.00000000
Si      -0.12751812       0.89454417       2.19887421       0.00000000
Si       2.16981171      -0.02076975      -1.03999928       0.00000000
Si       0.30120210       3.43145103       0.28084499       0.00000000
Si      -0.17203869      -2.58130918      -2.46821841       0.00000000
Si       2.14640298      -2.16166249      -2.17015648       0.00000000
Si      -2.09743524       2.11305246       2.34639912       0.00000000
Si       1.67855418       2.46706674       2.45627266       0.00000000
Si       3.88579121       0.22347436       0.53235614       0.00000000
