10
Lattice="16.28999089631971 0.0 0.0 0.0 16.28999089631971 0.0 0.0 0.0 34.2284985734139" Properties=species:S:1:pos:R:3:initial_magmoms:R:1 pbc="T T T"
Si       1.16760204       1.45854144      -1.40234237       0.00000000
Si      -1.57099131      -0.75951473      -1.62609419       0.00000000
Si      -1.11661434       1.52881650       1.65073872       0.00000000
Si       1.42659675      -1.85584544       0.96657911       0.00000000
Si       0.20787669       0.59303745       3.43496460       0.00000000
Si      -1.93282479      -2.94310520      -0.76329594       0.00000000
Si      -3.47020983       0.65233305      -1.53569668       0.00000000
Si       3.34210594       1.81011222      -0.62285634       0.00000000
Si       0.13486491       3.59262918      -1.46433022       0.00000000
Si       1.88869518      -1.24757942       3.25535459       0.00000000
