10
Lattice="16.28999089631971 0.0 0.0 0.0 16.28999089631971 0.0 0.0 0.0 34.2284985734139" Properties=species:S:1:pos:R:3:initial_magmoms:R:1 pbc="T T T"
Si      -1.36244673      -1.35425286       1.32491746       0.00000000
Si      -1.35979146       1.35413883      -1.35534662       0.00000000
Si       1.35795069      -1.35812988      -1.35455936       0.00000000
Si       1.35578412       1.35711990       1.37365887       0.00000000
Si       2.35856394      -0.28132830       2.71305500       0.00000000
Si      -2.72438847      -0.05294250       2.62532731       0.00000000
Si      -0.07480368       2.64956850       2.76936091       0.00000000
Si       0.00066789       2.71355562      -2.71213083       0.00000000
Si      -2.71365336      -0.00070047      -2.71226774       0.00000000
Si      -2.71104696      -2.71521720       0.00527119       0.00000000
