10
Lattice="16.28999089631971 0.0 0.0 0.0 16.28999089631971 0.0 0.0 0.0 34.2284985734139" Properties=species:S:1:pos:R:3:initial_magmoms:R:1 pbc="T T T"
Si       1.16714592      -0.59196231       1.93692336       0.00000000
Si      -0.11189601      -1.89783387      -1.38122337       0.00000000
Si      -2.25825012       0.70858242       0.05945494       0.00000000
Si       1.40050017       1.83861972      -0.54419920       0.00000000
Si      -2.99823966      -0.80993880       1.66829795       0.00000000
Si       1.60218666       2.91654531       1.57386147       0.00000000
Si       3.15846810      -1.71593973       1.29356414       0.00000000
Si       1.57304385       1.28010078       3.28607461       0.00000000
Si      -3.48998589      -0.26564103      -1.67045435       0.00000000
Si       1.17410175      -1.44493929      -3.42702765       0.00000000
