10
Lattice="16.28999089631971 0.0 0.0 0.0 16.28999089631971 0.0 0.0 0.0 34.2284985734139" Properties=species:S:1:pos:R:3:initial_magmoms:R:1 pbc="T T T"
Si      -0.47592864      -1.79812278       1.35572313       0.00000000
Si      -1.16714592       0.59196231      -1.93692336       0.00000000
Si       0.40589793       1.87206309       1.34915125       0.00000000
Si       1.99132218      -1.12397742      -0.64335922       0.00000000
Si       2.17152216       0.73150245       2.47934268       0.00000000
Si       0.23335425       2.43058203      -2.48112256       0.00000000
Si       0.43504074       3.50850762      -0.36306189       0.00000000
Si      -1.39206195      -3.32677638      -0.16659020       0.00000000
Si      -2.23075260      -1.00942614       2.67157004       0.00000000
Si       3.31646548      -0.93856464       1.27799017       0.00000000
