10
Lattice="16.28999089631971 0.0 0.0 0.0 16.28999089631971 0.0 0.0 0.0 34.2284985734139" Properties=species:S:1:pos:R:3:initial_magmoms:R:1 pbc="T T T"
Si      -1.17307548       1.39308822      -1.42951981       0.00000000
Si      -1.36112724      -1.14306930       1.50526752       0.00000000
Si       1.80913875       1.14363945       1.04458590       0.00000000
Si       0.09169641       0.56900970      -3.27854434       0.00000000
Si       0.23718240       3.23195229      -1.13334045       0.00000000
Si       0.23592807      -2.65025268       2.52322364       0.00000000
Si      -0.37636416      -1.76746500      -3.28422627       0.00000000
Si       0.50648609       2.75587704       2.50963492       0.00000000
Si      -2.91638241      -2.41163676       0.18151383       0.00000000
Si      -2.75390595       0.40190688       2.72473963       0.00000000
