10
Lattice="16.28999089631971 0.0 0.0 0.0 16.28999089631971 0.0 0.0 0.0 34.2284985734139" Properties=species:S:1:pos:R:3:initial_magmoms:R:1 pbc="T T T"
Si       2.19264849       0.22265172      -0.82521533       0.00000000
Si      -1.40050017      -1.83861972       0.54419920       0.00000000
Si       0.20168649       1.07792559       2.11806068       0.00000000
Si      -0.98060913       1.91715381      -1.05173966       0.00000000
Si      -0.23335425      -2.43058203       2.48112256       0.00000000
Si       2.85988122       2.39155119      -0.13256705       0.00000000
Si       2.07218574      -0.70726293      -3.03829437       0.00000000
Si       2.05351740       2.53597833       2.05624397       0.00000000
Si       0.17254368      -0.55851894       3.83027382       0.00000000
Si      -3.65875029      -1.13003730       0.60365414       0.00000000
