10
Lattice="16.28999089631971 0.0 0.0 0.0 16.28999089631971 0.0 0.0 0.0 34.2284985734139" Properties=species:S:1:pos:R:3:initial_magmoms:R:1 pbc="T T T"
Si       0.80636382      -0.14442714      -2.18881102       0.00000000
Si      -1.85183091      -1.45805274       0.06181670       0.00000000
Si       1.54302531      -1.21503852       1.34702909       0.00000000
Si       0.12144195       2.29793256       0.73796684       0.00000000
Si       3.08528432       0.07201809      -1.51546762       0.00000000
Si      -3.46074534       0.16257420       0.52171107       0.00000000
Si       2.57558651       0.56531187       2.56611197       0.00000000
Si       0.13913109      -2.31332661      -2.88145931       0.00000000
Si       2.43251144       2.54513331       1.31091800       0.00000000
Si      -0.70988562       2.44123569       2.88888689       0.00000000
