10
Lattice="16.28999089631971 0.0 0.0 0.0 16.28999089631971 0.0 0.0 0.0 34.2284985734139" Properties=species:S:1:pos:R:3:initial_magmoms:R:1 pbc="T T T"
Si       1.33113476      -1.30759830      -1.44184208       0.00000000
Si      -2.27486592       0.57023145      -0.42737727       0.00000000
Si       1.07622070       2.05154631      -0.68843818       0.00000000
Si       0.24469209      -1.59614307       1.84608087       0.00000000
Si       2.66366654      -1.50444666       1.83612038       0.00000000
Si      -2.76346818       1.78882119       1.67969605       0.00000000
Si      -3.16193787      -1.50726483      -1.29849305       0.00000000
Si       0.15960942      -3.26546082      -1.91758425       0.00000000
Si       3.49530362      -1.41369507      -0.44274588       0.00000000
Si      -1.02007980      -0.77206455       3.69510540       0.00000000
