10
Lattice="16.28999089631971 0.0 0.0 0.0 16.28999089631971 0.0 0.0 0.0 34.2284985734139" Properties=species:S:1:pos:R:3:initial_magmoms:R:1 pbc="T T T"
Si       1.17307548      -1.39308822       1.42951981       0.00000000
Si       1.41025788       1.83886407       0.29617936       0.00000000
Si       1.26477189      -0.82407852      -1.84902453       0.00000000
Si      -2.21560290       0.76445712      -0.56901488       0.00000000
Si       0.04838130       3.50093277      -0.76473354       0.00000000
Si      -1.74338838       2.56088574      -2.01540935       0.00000000
Si       0.79671132      -3.16055322      -1.85470646       0.00000000
Si       3.55298651       1.27798308      -0.60064203       0.00000000
Si       2.98221423      -0.24944877       2.47410572       0.00000000
Si      -0.18805176      -2.53615752       2.93478734       0.00000000
