10
Lattice="16.28999089631971 0.0 0.0 0.0 16.28999089631971 0.0 0.0 0.0 34.2284985734139" Properties=species:S:1:pos:R:3:initial_magmoms:R:1 pbc="T T T"
Si      -1.23400008       1.39082391       1.42810960       0.00000000
Si       1.50016102      -1.32695082       1.40199666       0.00000000
Si       0.80234766       1.94618000      -1.27377455       0.00000000
Si      -1.94323410      -0.82016892      -1.32753051       0.00000000
Si      -2.58188355      -2.73408102      -0.04230987       0.00000000
Si      -2.63450025       2.69953875      -0.00886861       0.00000000
Si      -2.57821830       0.03604977       2.78990144       0.00000000
Si       0.34024923       1.33791399      -3.56255003       0.00000000
Si       0.13336623      -2.68271865       2.78812156       0.00000000
Si       0.13409928       2.74793471       2.78661551       0.00000000
