10
Lattice="16.28999089631971 0.0 0.0 0.0 16.28999089631971 0.0 0.0 0.0 34.2284985734139" Properties=species:S:1:pos:R:3:initial_magmoms:R:1 pbc="T T T"
Si       1.23400008      -1.39082391      -1.42810960       0.00000000
Si      -1.34421822      -1.35477414       1.36179185       0.00000000
Si       1.36809936       1.35711080       1.35850591       0.00000000
Si      -1.40050017       1.30871484      -1.43697821       0.00000000
Si       2.03634774       0.55535609      -2.70188415       0.00000000
Si       0.35552925       2.39597297      -2.52227414       0.00000000
Si      -0.70923402      -2.21099283      -2.75564011       0.00000000
Si      -2.40569091      -0.45574533      -2.73161169       0.00000000
Si      -2.71221984       2.70566216      -0.00871458       0.00000000
Si      -2.70443322      -0.00018700       2.71963714       0.00000000
