10
Lattice="16.28999089631971 0.0 0.0 0.0 16.28999089631971 0.0 0.0 0.0 34.2284985734139" Properties=species:S:1:pos:R:3:initial_magmoms:R:1 pbc="T T T"
Si       1.35121494       1.35827850      -1.36547826       0.00000000
Si      -1.35987291      -1.35637056      -1.36380106       0.00000000
Si      -1.29274182       1.22313465       1.56479092       0.00000000
Si       1.38140619      -1.37477826       1.43147084       0.00000000
Si      -0.55930086      -2.32808535       2.62200714       0.00000000
Si       0.75061062       1.94335206       2.87653040       0.00000000
Si      -2.36602476      -0.63843768       2.62813405       0.00000000
Si       2.53640580       0.19233603       2.76186486       0.00000000
Si      -2.70488934       2.70837281       0.02775933       0.00000000
Si       2.71143207       0.00060273      -2.72472692       0.00000000
