10
Lattice="16.28999089631971 0.0 0.0 0.0 16.28999089631971 0.0 0.0 0.0 34.2284985734139" Properties=species:S:1:pos:R:3:initial_magmoms:R:1 pbc="T T T"
Si       1.64887773      -0.86123601      -1.36356146       0.00000000
Si      -1.18951209      -1.82104281       0.77021011       0.00000000
Si      -1.08488142       1.49686091      -1.44680521       0.00000000
Si       0.92291388       0.95804748       1.98022243       0.00000000
Si      -1.60537950      -0.96467751       2.92051404       0.00000000
Si       0.17827776       1.02824109      -3.38194869       0.00000000
Si       2.52340964       1.10949561      -2.29485097       0.00000000
Si       3.03597449      -2.03668983       0.01605317       0.00000000
Si      -0.95488722       1.40807502       3.34819937       0.00000000
Si       1.98668672       2.97367338       1.29414603       0.00000000
