10
Lattice="16.28999089631971 0.0 0.0 0.0 16.28999089631971 0.0 0.0 0.0 34.2284985734139" Properties=species:S:1:pos:R:3:initial_magmoms:R:1 pbc="T T T"
Si       1.35586557       1.35755973       1.35787953       0.00000000
Si      -1.35750271       1.35739683      -1.35753724       0.00000000
Si       1.35793440      -1.35749457      -1.35757147       0.00000000
Si      -1.35761674      -1.35917244       1.35763993       0.00000000
Si       0.00043983      -2.71125873       2.71435568       0.00000000
Si       0.00032580       2.71301805      -2.71500602       0.00000000
Si       0.00092853       2.71568961       2.71284963       0.00000000
Si       0.00107514      -2.71399545      -2.71534831       0.00000000
Si       2.71516833       0.00223173      -2.71432145       0.00000000
Si       2.71467963      -2.71487511       0.00000000       0.00000000
