10
Lattice="16.28999089631971 0.0 0.0 0.0 16.28999089631971 0.0 0.0 0.0 34.2284985734139" Properties=species:S:1:pos:R:3:initial_magmoms:R:1 pbc="T T T"
Si       0.55027457      -2.45258982      -0.76401474       0.00000000
Si      -0.70943832       1.06749999       2.31583305       0.00000000
Si      -2.44248255       0.94573224      -0.76962822       0.00000000
Si      -0.50177549       1.89903933      -1.96016452       0.00000000
Si       2.10655601      -0.94605804      -1.84933258       0.00000000
Si      -2.96392545       0.82412739       1.57132856       0.00000000
Si       0.83951981       0.54845172      -3.37698556       0.00000000
Si       0.65322411       3.46615362      -0.62977050       0.00000000
Si      -0.65121786      -3.65265783       0.90565235       0.00000000
Si       0.13647762      -0.55384371       3.81137967       0.00000000
