10
Lattice="16.28999089631971 0.0 0.0 0.0 16.28999089631971 0.0 0.0 0.0 34.2284985734139" Properties=species:S:1:pos:R:3:initial_magmoms:R:1 pbc="T T T"
Si      -0.14307507       1.97982144      -1.25519397       0.00000000
Si       1.82869911      -0.91597041       1.15665007       0.00000000
Si      -1.03256120      -1.78035039      -1.21908289       0.00000000
Si      -1.77432472       0.51663735       1.56725537       0.00000000
Si       1.35055503      -1.78546545      -2.26462719       0.00000000
Si      -1.51941065      -2.84250726       0.81385147       0.00000000
Si      -2.45414456       1.73262069      -1.82814513       0.00000000
Si       0.64475820      -2.94860403       1.81294767       0.00000000
Si       2.07120834       0.43986258       2.99769935       0.00000000
Si      -2.57558651      -0.56531187      -2.56611197       0.00000000
