10
Lattice="16.28999089631971 0.0 0.0 0.0 16.28999089631971 0.0 0.0 0.0 34.2284985734139" Properties=species:S:1:pos:R:3:initial_magmoms:R:1 pbc="T T T"
Si      -1.17152534      -1.95786252      -0.47574217       0.00000000
Si       0.48684946       1.06215687      -2.03293435       0.00000000
Si      -1.33113476       1.30759830       1.44184208       0.00000000
Si       2.16416885      -0.10609677       0.99909620       0.00000000
Si       1.51941065       2.84250726      -0.81385147       0.00000000
Si      -2.93714957      -0.81730188      -1.60593359       0.00000000
Si      -0.25491407       3.35914461       0.75340390       0.00000000
Si      -1.08644267      -0.28854477       3.28792295       0.00000000
Si       1.33253177      -0.19684836       3.27796245       0.00000000
Si       1.56466427      -0.81208908      -3.16829428       0.00000000
