10
Lattice="16.28999089631971 0.0 0.0 0.0 16.28999089631971 0.0 0.0 0.0 34.2284985734139" Properties=species:S:1:pos:R:3:initial_magmoms:R:1 pbc="T T T"
Si       1.28011707       1.39660686       1.40990486       0.00000000
Si      -1.55363987      -1.27534410       1.44919577       0.00000000
Si      -0.12472634       1.80436185      -1.73589928       0.00000000
Si       1.30265266      -1.61223759      -1.46504901       0.00000000
Si      -0.26930369       0.47607525      -3.64297537       0.00000000
Si       2.73912440       2.48130909      -0.16991036       0.00000000
Si      -0.50648609      -2.75587704      -2.50963492       0.00000000
Si       2.48122112      -0.00034209       2.86762555       0.00000000
Si       2.61760100      -2.76579765       0.16820811       0.00000000
Si      -0.23664361       2.70239697       2.83864768       0.00000000
