10
Lattice="16.28999089631971 0.0 0.0 0.0 16.28999089631971 0.0 0.0 0.0 34.2284985734139" Properties=species:S:1:pos:R:3:initial_magmoms:R:1 pbc="T T T"
Si       1.87613559       0.74564610       1.14733991       0.00000000
Si      -1.49555558      -1.07895186       1.42322177       0.00000000
Si       1.38823380      -1.29731931      -1.34915125       0.00000000
Si      -1.31573353       1.45839061      -1.32950408       0.00000000
Si       0.55732977       0.95487649       3.06362348       0.00000000
Si       0.39196998      -1.36847403       3.34973966       0.00000000
Si      -3.28135076       0.67206417       1.53788730       0.00000000
Si      -2.65055519      -2.64606615       0.09282774       0.00000000
Si       0.03808602      -2.62712088      -2.70795495       0.00000000
Si      -2.68074644       0.08699061      -2.70412136       0.00000000
