10
Lattice="16.28999089631971 0.0 0.0 0.0 16.28999089631971 0.0 0.0 0.0 34.2284985734139" Properties=species:S:1:pos:R:3:initial_magmoms:R:1 pbc="T T T"
Si       1.33812576       1.34767170       1.37934081       0.00000000
Si      -1.35881732       1.35317772      -1.35534662       0.00000000
Si       1.35591444      -1.35998205      -1.35548353       0.00000000
Si      -1.35240232      -1.34566314       1.37934081       0.00000000
Si       2.67330303      -0.08470800       2.71288386       0.00000000
Si      -2.70892016       2.71057455       0.00592153       0.00000000
Si       0.00017919       2.71269225      -2.71172009       0.00000000
Si      -2.71400936      -0.00236205      -2.71233620       0.00000000
Si       2.71551042      -0.00201996      -2.71230197       0.00000000
Si       0.00008145      -2.71706193      -2.71209660       0.00000000
