10
Lattice="16.28999089631971 0.0 0.0 0.0 16.28999089631971 0.0 0.0 0.0 34.2284985734139" Properties=species:S:1:pos:R:3:initial_magmoms:R:1 pbc="T T T"
Si      -0.98196120       0.81666657      -2.00274480       0.00000000
Si      -1.45900733      -1.08470223       1.57981522       0.00000000
Si       1.32126561      -1.57775166      -1.27045989       0.00000000
Si       1.13288805       1.49040468       1.55286369       0.00000000
Si      -2.86385074      -0.67694724      -1.56598891       0.00000000
Si      -2.73912440      -2.48130909       0.16991036       0.00000000
Si       0.90994311       0.60479883      -3.56134035       0.00000000
Si       3.01307985       2.38910769       0.37618001       0.00000000
Si       2.76596055      -2.70576900       0.15539747       0.00000000
Si       2.43959040       0.20955456       3.03899404       0.00000000
