10
Lattice="16.28999089631971 0.0 0.0 0.0 16.28999089631971 0.0 0.0 0.0 34.2284985734139" Properties=species:S:1:pos:R:3:initial_magmoms:R:1 pbc="T T T"
Si      -1.05476121      -1.16361099      -1.72679449       0.00000000
Si       1.68669918      -1.61819973       0.33030520       0.00000000
Si       1.02894156       2.09590398      -0.48104759       0.00000000
Si      -1.89190431       0.21186774       1.55859555       0.00000000
Si       0.41132250      -2.18255049       2.29088046       0.00000000
Si       0.61320447      -1.70206065      -3.16100361       0.00000000
Si       0.62340201       2.24337735      -2.82364734       0.00000000
Si      -3.16782182       1.83112632       0.23737477       0.00000000
Si      -1.77564258      -3.17091366      -0.80854605       0.00000000
Si      -0.90994311      -0.60479883       3.56134035       0.00000000
