10
Lattice="10.86 0.0 0.0 0.0 10.86 0.0 0.0 0.0 10.86" Properties=species:S:1:pos:R:3:initial_magmoms:R:1 pbc="T T T"
Si       1.43817894      -1.26561354      -1.24669542       0.00000000
Si      -1.27682106       1.44938646      -1.24669542       0.00000000
Si      -1.27682106      -1.26561354       1.46830458       0.00000000
Si       1.44992946       1.63920840       0.99728466       0.00000000
Si       2.48352996       0.27160860       2.59411734       0.00000000
Si      -0.04465632       2.88520878      -2.30463318       0.00000000
Si       0.08067894      -2.62311354      -2.60419542       0.00000000
Si      -2.63432106       0.09188646      -2.60419542       0.00000000
Si      -2.63432106      -2.62311354       0.11080458       0.00000000
Si       2.70583416       0.03716292      -2.70936366       0.00000000
