10
Lattice="10.86 0.0 0.0 0.0 10.86 0.0 0.0 0.0 10.86" Properties=species:S:1:pos:R:3:initial_magmoms:R:1 pbc="T T T"
Si      -1.23216474      -1.43582232       1.05793776       0.00000000
Si       1.45209060       1.20562290       1.40713020       0.00000000
Si      -1.23216474       1.27917768      -1.65706224       0.00000000
Si       1.48283526      -1.43582232      -1.65706224       0.00000000
Si      -2.58966474      -0.07832232       2.41543776       0.00000000
Si       0.04465632      -2.88520878       2.30463318       0.00000000
Si      -2.58966474       2.63667768      -0.29956224       0.00000000
Si       2.63396268       2.62947750       0.08931264       0.00000000
Si       0.01706106       2.68489608       2.60514024       0.00000000
Si      -2.58966474      -2.79332232      -0.29956224       0.00000000
