10
Lattice="10.86 0.0 0.0 0.0 10.86 0.0 0.0 0.0 10.86" Properties=species:S:1:pos:R:3:initial_magmoms:R:1 pbc="T T T"
Si       0.06583332      -0.79798194      -2.27022870       0.00000000
Si      -2.02692126      -1.23361998       1.16493048       0.00000000
Si       2.47457046      -1.00239972       0.58623366       0.00000000
Si      -1.57814262      -2.24885622      -0.97849686       0.00000000
Si       1.13685738      -2.24885622       1.73650314       0.00000000
Si      -0.59895072      -0.79956750       2.98467552       0.00000000
Si      -0.22064262      -3.60635622       0.37900314       0.00000000
Si       2.56049478       1.86090444      -2.43329160       0.00000000
Si      -1.57814262       0.46614378      -3.69349686       0.00000000
Si      -1.73157270       3.58067232      -1.07361960       0.00000000
