10
Lattice="16.28999089631971 0.0 0.0 0.0 16.28999089631971 0.0 0.0 0.0 34.279985188174585" Properties=species:S:1:pos:R:3:initial_magmoms:R:1 pbc="T T T"
Si       1.96462287       1.19961189       0.42208969       0.00000000
Si      -1.38132684       1.96419933       0.08350609       0.00000000
Si      -0.34083567      -1.79468885       1.57598892       0.00000000
Si       0.65326158      -0.89902881      -2.17486060       0.00000000
Si       3.71951199      -0.30072969      -0.01621444       0.00000000
Si       1.94875641       2.98598958      -1.12301294       0.00000000
Si       1.86056235       1.86456969       2.67438882       0.00000000
Si       1.50159591      -3.18176769       1.31134729       0.00000000
Si      -2.17194570      -2.98967601       0.72985557       0.00000000
Si      -0.34904583       3.56531085      -1.34062241       0.00000000
