10
Lattice="16.28999089631971 0.0 0.0 0.0 16.28999089631971 0.0 0.0 0.0 34.279985188174585" Properties=species:S:1:pos:R:3:initial_magmoms:R:1 pbc="T T T"
Si       1.43659229      -0.57487410       1.82325059       0.00000000
Si      -1.29747962       1.50721596       1.41950070       0.00000000
Si      -1.26124421      -1.52319645      -1.46344767       0.00000000
Si       1.39078481       1.30895037      -1.67433825       0.00000000
Si       3.41126609       0.69302547       0.73331785       0.00000000
Si      -2.70241067       2.69992089      -0.26244771       0.00000000
Si       2.76869075       2.68345170      -0.32346612       0.00000000
Si      -2.02217285      -3.33516899       0.10092033       0.00000000
Si       0.19988482       2.94557409       2.65694030       0.00000000
Si       2.47131680      -2.65950540       1.74920578       0.00000000
