10
Lattice="16.28999089631971 0.0 0.0 0.0 16.28999089631971 0.0 0.0 0.0 34.279985188174585" Properties=species:S:1:pos:R:3:initial_magmoms:R:1 pbc="T T T"
Si       1.84243158      -1.38707884      -0.26464163       0.00000000
Si      -1.83111003      -1.19498716      -0.84613335       0.00000000
Si       0.34083567       1.79468885      -1.57598892       0.00000000
Si       0.25883181      -0.04219762       2.40950723       0.00000000
Si      -3.58028625      -0.02727760       0.31023404       0.00000000
Si       2.10178467       1.73925398       2.42818983       0.00000000
Si      -1.44340803      -1.73190786       2.96583742       0.00000000
Si       3.84289245      -0.16302543       0.06502917       0.00000000
Si       1.90487115      -2.53062285      -2.31880233       0.00000000
Si       2.30545854       2.99430074      -1.15389923       0.00000000
