10
Lattice="16.28999089631971 0.0 0.0 0.0 16.28999089631971 0.0 0.0 0.0 34.279985188174585" Properties=species:S:1:pos:R:3:initial_magmoms:R:1 pbc="T T T"
Si       1.37282346      -1.24476777       1.51267032       0.00000000
Si       1.76028111       1.14561054      -1.17120110       0.00000000
Si      -0.97450038      -1.88292852      -1.22051697       0.00000000
Si      -1.33814205       1.45691244       1.50137163       0.00000000
Si       0.80511696      -3.49635528      -1.01865227       0.00000000
Si      -2.58005907       2.73580776      -0.06046650       0.00000000
Si       2.78339085      -2.56183056       0.01893285       0.00000000
Si       2.68602552       2.76102468       0.25122444       0.00000000
Si       0.01585017      -2.59740792       2.88809379       0.00000000
Si      -2.78919009      -2.72640843       0.07821326       0.00000000
