10
Lattice="16.28999089631971 0.0 0.0 0.0 16.28999089631971 0.0 0.0 0.0 34.279985188174585" Properties=species:S:1:pos:R:3:initial_magmoms:R:1 pbc="T T T"
Si      -0.93552330      -2.16727861      -0.03883924       0.00000000
Si      -1.59744301       1.44189306       1.07323838       0.00000000
Si       2.31726879       0.05582583       0.67997817       0.00000000
Si       0.72635481       0.24594642      -2.42123099       0.00000000
Si       1.76107932      -1.83868488      -2.49527580       0.00000000
Si       0.77999778      -3.42318779      -1.02716605       0.00000000
Si      -3.11991686       1.95248682      -0.73911117       0.00000000
Si      -0.65542163       3.58883361       0.97183812       0.00000000
Si       3.12354234       2.18795877       0.34334852       0.00000000
Si       3.56180850      -1.11904155      -0.94904192       0.00000000
