10
Lattice="16.28999089631971 0.0 0.0 0.0 16.28999089631971 0.0 0.0 0.0 34.279985188174585" Properties=species:S:1:pos:R:3:initial_magmoms:R:1 pbc="T T T"
Si      -1.35697329      -1.35264015       1.37542347       0.00000000
Si       1.35723393       1.35889551       1.37538919       0.00000000
Si      -1.37282346       1.24476777      -1.51267032       0.00000000
Si       1.41056739      -1.31706279      -1.49373748       0.00000000
Si      -0.56770650      -2.25158751      -2.53132259       0.00000000
Si       0.38745765       2.39037831      -2.68387142       0.00000000
Si       2.28480282       0.59997699      -2.74950458       0.00000000
Si      -2.34732384      -0.63816075      -2.73318729       0.00000000
Si      -2.71096551       2.70168021      -0.01129869       0.00000000
Si      -2.72841210      -2.70679527       0.01970415       0.00000000
