10
Lattice="16.28999089631971 0.0 0.0 0.0 16.28999089631971 0.0 0.0 0.0 34.279985188174585" Properties=species:S:1:pos:R:3:initial_magmoms:R:1 pbc="T T T"
Si      -1.35692442      -1.35736425      -1.35731677       0.00000000
Si       1.35795069       1.35749457      -1.35769385       0.00000000
Si      -1.35663120       1.35731538       1.36005917       0.00000000
Si       1.35754344      -1.35822762       1.35992205       0.00000000
Si      -2.71354910      -2.71492398      -0.00027424       0.00000000
Si       2.71485882       2.71484253      -0.00065132       0.00000000
Si      -2.71467311       0.00019548      -2.71545626       0.00000000
Si       0.00035838      -2.71521720      -2.71511346       0.00000000
Si       2.71538010       0.00029322      -2.71507918       0.00000000
Si       0.00027693       2.71515204      -2.71531914       0.00000000
