10
Lattice="16.28999089631971 0.0 0.0 0.0 16.28999089631971 0.0 0.0 0.0 34.279985188174585" Properties=species:S:1:pos:R:3:initial_magmoms:R:1 pbc="T T T"
Si       1.35677781       1.34574948      -1.36273301       0.00000000
Si       1.42342020      -1.28751273       1.35899649       0.00000000
Si      -1.35583299      -1.37213928      -1.36095045       0.00000000
Si      -1.35796698       1.34754138       1.42402566       0.00000000
Si       0.02422323      -2.58896970       2.74185187       0.00000000
Si      -2.71199178       2.69570178       0.00126836       0.00000000
Si       2.71538010       2.70549207       0.00925560       0.00000000
Si       0.00148239       2.70093087      -2.72152383       0.00000000
Si      -2.71337643      -0.01391166      -2.72087250       0.00000000
Si       2.71580364      -0.01485648      -2.72076966       0.00000000
