10
Lattice="16.28999089631971 0.0 0.0 0.0 16.28999089631971 0.0 0.0 0.0 34.279985188174585" Properties=species:S:1:pos:R:3:initial_magmoms:R:1 pbc="T T T"
Si      -0.50225328      -2.22514884      -0.00010284       0.00000000
Si       0.98717400       0.06341697       2.10462087       0.00000000
Si      -1.83326031       1.51633836       0.06043565       0.00000000
Si       1.86546564       0.71182413      -1.35779669       0.00000000
Si      -0.05737338       2.94314688      -0.60367088       0.00000000
Si       3.09081573       0.02378340       1.10258206       0.00000000
Si      -1.36159965      -2.25129429       2.12073247       0.00000000
Si       0.33394500       2.01181500      -2.77044139       0.00000000
Si       1.45065708      -3.22556661      -0.77164290       0.00000000
Si      -3.55047066       0.52522218      -1.27504476       0.00000000
