10
Lattice="16.28999089631971 0.0 0.0 0.0 16.28999089631971 0.0 0.0 0.0 34.279985188174585" Properties=species:S:1:pos:R:3:initial_magmoms:R:1 pbc="T T T"
Si      -1.35894438      -1.34076474       1.38158016       0.00000000
Si      -1.24191702       1.27889532      -1.56183813       0.00000000
Si       1.35198855       1.37485971       1.38367124       0.00000000
Si       1.33814205      -1.45691244      -1.50137163       0.00000000
Si       0.32203701       2.53434933      -2.83796070       0.00000000
Si       2.71096551      -2.70168021       0.01129869       0.00000000
Si      -2.70576900       2.71648782      -0.00055876       0.00000000
Si      -2.73018771      -2.69223201      -0.01218997       0.00000000
Si      -0.00379557      -2.69909010       2.74506733       0.00000000
Si       2.70097974       2.74421340       0.03068746       0.00000000
