10
Lattice="16.28999089631971 0.0 0.0 0.0 16.28999089631971 0.0 0.0 0.0 34.279985188174585" Properties=species:S:1:pos:R:3:initial_magmoms:R:1 pbc="T T T"
Si       0.40407508       0.97273471      -2.09008614       0.00000000
Si       1.99913161      -0.32451848       1.21310079       0.00000000
Si      -1.58674441       1.32802938       1.19746911       0.00000000
Si      -0.59644890      -2.14056026      -0.93190192       0.00000000
Si       2.39499490      -2.66195429       0.87376303       0.00000000
Si      -3.62802802       0.76091258      -0.04168449       0.00000000
Si      -1.63483249       0.62766364      -3.27689418       0.00000000
Si       2.11959616      -0.28317446      -3.07841295       0.00000000
Si       1.44131314      -3.33202715      -1.14351238       0.00000000
Si      -2.14695751      -3.24626030       0.44865670       0.00000000
