10
Lattice="16.28999089631971 0.0 0.0 0.0 16.28999089631971 0.0 0.0 0.0 34.279985188174585" Properties=species:S:1:pos:R:3:initial_magmoms:R:1 pbc="T T T"
Si       0.80229879       0.66917691       2.11281379       0.00000000
Si      -1.77588693      -1.42680852       0.66410652       0.00000000
Si       0.39131838      -0.93133188      -2.16677051       0.00000000
Si      -1.77253119       1.83630654      -0.11572929       0.00000000
Si       0.05737338      -2.94314688       0.60367088       0.00000000
Si       1.92283902      -2.23132275      -0.75412582       0.00000000
Si       2.98372527       0.51025167       1.51116543       0.00000000
Si      -2.74613562       1.83775635      -2.26433141       0.00000000
Si       1.75078404       0.31526037      -3.60269134       0.00000000
Si      -0.92755260       3.71539062       1.23130348       0.00000000
