10
Lattice="16.28999089631971 0.0 0.0 0.0 16.28999089631971 0.0 0.0 0.0 34.279985188174585" Properties=species:S:1:pos:R:3:initial_magmoms:R:1 pbc="T T T"
Si       0.24083136       2.29894254      -0.29449952       0.00000000
Si       1.67356944      -0.80788626       1.45953975       0.00000000
Si      -0.49713822      -0.60605316      -2.23306804       0.00000000
Si      -1.88475300      -1.10211624       0.95199000       0.00000000
Si       0.75074094      -2.85879726       2.11980691       0.00000000
Si      -1.14510555      -3.35494179       0.86776403       0.00000000
Si      -1.82431710       2.94692616      -1.21861987       0.00000000
Si       0.37499580       3.28621428       1.81152683       0.00000000
Si      -3.90075779      -0.51593688      -0.11987718       0.00000000
Si      -0.09436797      -2.86979301      -2.69492254       0.00000000
