10
Lattice="16.28999089631971 0.0 0.0 0.0 16.28999089631971 0.0 0.0 0.0 34.279985188174585" Properties=species:S:1:pos:R:3:initial_magmoms:R:1 pbc="T T T"
Si      -1.38398211       1.30459076       1.41560306       0.00000000
Si       1.33543791      -1.39771458       1.38412374       0.00000000
Si       0.98785818       1.62933299      -1.43400255       0.00000000
Si      -1.37137365      -1.52625897      -1.41840515       0.00000000
Si      -0.88332525       3.28566761      -1.35392446       0.00000000
Si       2.61307890       2.64085076       0.03665561       0.00000000
Si      -2.67014766       2.67966657       0.09082144       0.00000000
Si       2.68397298      -0.04031775       2.75496054       0.00000000
Si      -0.03134196       2.67850998       2.76058246       0.00000000
Si       2.73759966      -2.72723922      -0.03478735       0.00000000
