10
Lattice="16.28999089631971 0.0 0.0 0.0 16.28999089631971 0.0 0.0 0.0 34.279985188174585" Properties=species:S:1:pos:R:3:initial_magmoms:R:1 pbc="T T T"
Si       1.43360145      -1.22515461       1.45416121       0.00000000
Si       1.81468971       0.84347991      -1.29873023       0.00000000
Si      -1.27913967       1.49108886       1.41096841       0.00000000
Si      -0.76271409      -1.97855082      -1.30157547       0.00000000
Si      -2.54953650      -2.58455185       0.14317044       0.00000000
Si       0.60712830       0.43802181      -3.65740021       0.00000000
Si       2.73369006      -2.62336766       0.08900460       0.00000000
Si       0.08926920      -2.58570844       2.81293146       0.00000000
Si       3.59430705      -0.76994685      -1.09686553       0.00000000
Si      -2.62917342       0.13022226       2.80648682       0.00000000
