10
Lattice="16.28999089631971 0.0 0.0 0.0 16.28999089631971 0.0 0.0 0.0 34.279985188174585" Properties=species:S:1:pos:R:3:initial_magmoms:R:1 pbc="T T T"
Si      -1.30049586       1.37549502      -1.45926550       0.00000000
Si       1.38419388      -1.32647841      -1.45360930       0.00000000
Si      -1.73126862      -1.09703376       1.27926120       0.00000000
Si       1.89087804       0.80264088       1.31988301       0.00000000
Si      -0.75766419      -1.09848357       3.42786331       0.00000000
Si       2.63764422       2.61087975      -0.11295261       0.00000000
Si      -2.63513556       2.68846902      -0.07678721       0.00000000
Si       2.76565104      -2.61952974      -0.05909873       0.00000000
Si      -2.67268401       0.02792106      -2.81699364       0.00000000
Si       0.04109967      -2.68148061      -2.81946180       0.00000000
