10
Lattice="16.28999089631971 0.0 0.0 0.0 16.28999089631971 0.0 0.0 0.0 34.279985188174585" Properties=species:S:1:pos:R:3:initial_magmoms:R:1 pbc="T T T"
Si      -1.92490785      -0.80685999       1.15523615       0.00000000
Si      -0.17725149       2.06522895      -1.24710656       0.00000000
Si      -0.12134421      -0.78481962      -2.29977693       0.00000000
Si       1.75619232       0.39385962       1.67149301       0.00000000
Si       0.31794822       3.48424271       0.61786280       0.00000000
Si      -0.93007755      -1.82750994       2.96491186       0.00000000
Si      -2.50189965       1.21526806       2.30317065       0.00000000
Si       3.57669756      -0.58378473       0.70441981       0.00000000
Si       2.04364566       2.26253506      -2.21534528       0.00000000
Si       0.90751590      -0.51258114       3.62301938       0.00000000
