10
Lattice="16.28999089631971 0.0 0.0 0.0 16.28999089631971 0.0 0.0 0.0 34.279985188174585" Properties=species:S:1:pos:R:3:initial_magmoms:R:1 pbc="T T T"
Si       0.99483030      -1.02064995       1.80967571       0.00000000
Si       1.92490785       0.80685999      -1.15523615       0.00000000
Si      -0.57699180       2.02212805       1.14793451       0.00000000
Si      -0.84497859      -1.87908408      -1.34703277       0.00000000
Si      -2.44157778      -0.57070386       0.01995096       0.00000000
Si      -2.72021823       1.76901255       0.12258530       0.00000000
Si       1.72985139      -3.04621371       0.88151031       0.00000000
Si       2.83242375       0.29427885       2.46778323       0.00000000
Si       1.80356364       0.02204037      -3.45501308       0.00000000
Si       3.68110017       1.20071961       0.51625687       0.00000000
