10
Lattice="16.28999089631971 0.0 0.0 0.0 16.28999089631971 0.0 0.0 0.0 34.279985188174585" Properties=species:S:1:pos:R:3:initial_magmoms:R:1 pbc="T T T"
Si       1.89592794       0.79972497      -1.05181337       0.00000000
Si      -0.06243957       1.14354401       2.05416070       0.00000000
Si       0.05644485      -2.38379715       0.26460735       0.00000000
Si      -1.38653964       1.12867287      -1.68431373       0.00000000
Si      -1.09846728      -2.70500337      -1.70522454       0.00000000
Si       2.13846975      -0.71654823      -2.81192020       0.00000000
Si       1.51024590       3.08730428      -1.37325697       0.00000000
Si      -3.53463678       0.71684145      -0.86560439       0.00000000
Si       0.17819631      -0.54478647       3.68335219       0.00000000
Si      -3.13877349      -1.62059436      -1.20494215       0.00000000
