10
Lattice="16.28999089631971 0.0 0.0 0.0 16.28999089631971 0.0 0.0 0.0 34.279985188174585" Properties=species:S:1:pos:R:3:initial_magmoms:R:1 pbc="T T T"
Si      -0.45059769       2.23562331      -0.41149717       0.00000000
Si       0.05222574      -0.93798960      -2.17054132       0.00000000
Si      -1.95312213      -0.33107796       1.30545113       0.00000000
Si       1.67321106      -0.77203197       1.57766864       0.00000000
Si      -1.56744009      -2.61865727       1.62689473       0.00000000
Si      -1.91446596      -0.13810662      -3.13836868       0.00000000
Si      -1.30789152       0.60619977       3.40530707       0.00000000
Si       1.03451274       3.50692749       0.81922354       0.00000000
Si       0.52629732      -2.59721963       2.65580906       0.00000000
Si      -0.47622186      -3.22848971      -2.08473846       0.00000000
