10
Lattice="16.28999089631971 0.0 0.0 0.0 16.28999089631971 0.0 0.0 0.0 34.279985188174585" Properties=species:S:1:pos:R:3:initial_magmoms:R:1 pbc="T T T"
Si       2.12977904       0.74855808      -0.64251012       0.00000000
Si      -1.85914416       1.43832555       0.21572407       0.00000000
Si       0.89204855      -1.15799094       1.88306920       0.00000000
Si      -0.48820641      -1.72815723      -1.57653740       0.00000000
Si      -1.42146444      -1.86877903       2.19782820       0.00000000
Si       1.07164580       2.44138230      -1.95536573       0.00000000
Si       1.59631411      -2.70743777      -1.23078928       0.00000000
Si      -3.14507676      -0.23762223       1.52642003       0.00000000
Si      -2.29959318       1.83775635      -2.11846999       0.00000000
Si      -0.47501151       1.35526284      -3.49453792       0.00000000
