10
Lattice="16.28999089631971 0.0 0.0 0.0 16.28999089631971 0.0 0.0 0.0 34.279985188174585" Properties=species:S:1:pos:R:3:initial_magmoms:R:1 pbc="T T T"
Si       0.92574441       1.61541414       1.42242554       0.00000000
Si      -1.76028111      -1.14561054       1.17120110       0.00000000
Si      -0.92895354       1.75941774      -1.45064817       0.00000000
Si       1.89734517      -1.79040132      -0.06563315       0.00000000
Si       2.33859240       0.33273954       2.71455203       0.00000000
Si      -0.38745765      -2.39037831       2.68387142       0.00000000
Si       2.32665183       2.91032253       0.02731712       0.00000000
Si      -1.48164066       0.60176889      -3.58029344       0.00000000
Si       0.57402702       3.68983161      -1.33930671       0.00000000
Si      -2.77638615       2.84565123      -0.16538797       0.00000000
