10
Lattice="16.28999089631971 0.0 0.0 0.0 16.28999089631971 0.0 0.0 0.0 34.279985188174585" Properties=species:S:1:pos:R:3:initial_magmoms:R:1 pbc="T T T"
Si       1.35632169       1.35627282       1.35786525       0.00000000
Si      -1.35747828       1.35751086      -1.35731677       0.00000000
Si       1.35739683      -1.35769005      -1.35728249       0.00000000
Si      -1.35816246      -1.35871632       1.35824233       0.00000000
Si      -2.71404432      -0.00166158      -2.71387938       0.00000000
Si       2.71350675       0.00034209      -2.71453070       0.00000000
Si      -0.00187335      -2.71471221      -2.71387938       0.00000000
Si       0.00201996       2.71487511      -2.71425646       0.00000000
Si       2.71542897       2.71414206       0.00027424       0.00000000
Si      -2.71490769       2.71471221       0.00006856       0.00000000
