10
Lattice="16.28999089631971 0.0 0.0 0.0 16.28999089631971 0.0 0.0 0.0 34.279985188174585" Properties=species:S:1:pos:R:3:initial_magmoms:R:1 pbc="T T T"
Si      -1.70083890       0.97161705      -1.38004441       0.00000000
Si       0.83103435      -1.97174160      -1.18355143       0.00000000
Si       1.63507617       1.83185937      -0.07243365       0.00000000
Si      -1.68103026      -0.33588351       1.86154136       0.00000000
Si       2.10992967      -0.45906849      -2.75199875       0.00000000
Si      -1.77916122       1.95582627       2.38184326       0.00000000
Si      -3.41931987      -1.29352374       0.50761830       0.00000000
Si       1.82579949      -1.61593542       2.89450073       0.00000000
Si      -0.49619340       2.45928501      -2.85607284       0.00000000
Si       2.84687298       1.63580922       1.98704045       0.00000000
