10
Lattice="16.28999089631971 0.0 0.0 0.0 16.28999089631971 0.0 0.0 0.0 34.279985188174585" Properties=species:S:1:pos:R:3:initial_magmoms:R:1 pbc="T T T"
Si      -0.05774805       2.13811137      -0.96810160       0.00000000
Si      -0.29025522       0.27036513       2.32332729       0.00000000
Si       1.89837144      -1.20247893      -0.73417485       0.00000000
Si      -1.93738599      -1.24278039      -0.59678060       0.00000000
Si       0.40501827       1.65794733      -3.18286412       0.00000000
Si      -3.69227511       0.25756119      -0.15847646       0.00000000
Si      -1.69671753      -1.55185056       2.91695413       0.00000000
Si       1.04371659      -2.62101213      -2.42441903       0.00000000
Si      -2.15484120      -2.89976498       1.06045193       0.00000000
Si       1.72615356       3.39501519      -0.03499988       0.00000000
