10
Lattice="16.28999089631971 0.0 0.0 0.0 16.28999089631971 0.0 0.0 0.0 34.279985188174585" Properties=species:S:1:pos:R:3:initial_magmoms:R:1 pbc="T T T"
Si      -1.51817913       1.76796999       0.35174712       0.00000000
Si       0.29025522      -0.27036513      -2.32332729       0.00000000
Si       1.74646719      -0.22773420       1.57975972       0.00000000
Si      -1.40646231      -1.82221569       0.59362684       0.00000000
Si      -3.50608041       0.65215386      -0.22950463       0.00000000
Si       0.49845771      -0.87430059       3.53591389       0.00000000
Si      -1.64713077      -1.51314552      -2.92010789       0.00000000
Si      -1.12016556       2.43157572       2.57864477       0.00000000
Si      -0.41189265      -2.77309557       2.44872355       0.00000000
Si       0.23250717       1.86774624      -3.29142890       0.00000000
