10
Lattice="16.28999089631971 0.0 0.0 0.0 16.28999089631971 0.0 0.0 0.0 34.279985188174585" Properties=species:S:1:pos:R:3:initial_magmoms:R:1 pbc="T T T"
Si      -1.33561710       1.31328351      -1.45936835       0.00000000
Si      -1.20464550      -1.48766796       1.47602843       0.00000000
Si       1.37588598      -1.40631570      -1.43852610       0.00000000
Si       1.40190111       1.43917263       1.58963236       0.00000000
Si       2.13126957      -0.62742564       2.78363919       0.00000000
Si      -2.50831791       0.18458199       2.77753735       0.00000000
Si      -2.62757700      -2.67972129      -0.10962745       0.00000000
Si       0.49619340      -2.45928501       2.85607284       0.00000000
Si      -2.68037289       2.73116511      -0.07102817       0.00000000
Si       0.02458161       2.66569560      -2.82936872       0.00000000
