10
Lattice="16.28999089631971 0.0 0.0 0.0 16.28999089631971 0.0 0.0 0.0 34.279985188174585" Properties=species:S:1:pos:R:3:initial_magmoms:R:1 pbc="T T T"
Si       0.39713132      -0.88966273       2.09714067       0.00000000
Si      -0.37502838      -2.14801636      -0.96412512       0.00000000
Si       2.31351299       0.71078809      -0.31475900       0.00000000
Si      -1.72361232       1.63115680      -0.67140817       0.00000000
Si       1.42146444       1.86877903      -2.19782820       0.00000000
Si      -0.97696017      -1.09134922      -3.10398583       0.00000000
Si       1.84496372      -3.00141688      -0.64569816       0.00000000
Si       1.62846473       0.67671266       3.23786437       0.00000000
Si      -2.55241494       0.67669637      -2.75158739       0.00000000
Si       3.43367855      -1.27355287      -1.16709703       0.00000000
