10
Lattice="16.28999089631971 0.0 0.0 0.0 16.28999089631971 0.0 0.0 0.0 34.279985188174585" Properties=species:S:1:pos:R:3:initial_magmoms:R:1 pbc="T T T"
Si       1.52346020       1.35462753      -1.27864416       0.00000000
Si      -1.41229413      -1.47259971      -1.30171461       0.00000000
Si      -1.88714763       0.81832815       1.37785049       0.00000000
Si       1.40493105      -1.19270493       1.68194841       0.00000000
Si      -0.67535082       0.62227800       3.43732460       0.00000000
Si       2.70241067      -2.69992089       0.26244771       0.00000000
Si      -2.64253122       0.03943809      -2.84431480       0.00000000
Si      -2.61651609       2.88492642       0.18384366       0.00000000
Si       0.07125246      -2.69213427      -2.83097988       0.00000000
Si      -3.52222380      -1.01353122       1.45028414       0.00000000
