10
Lattice="16.28999089631971 0.0 0.0 0.0 16.28999089631971 0.0 0.0 0.0 34.279985188174585" Properties=species:S:1:pos:R:3:initial_magmoms:R:1 pbc="T T T"
Si      -1.81819206      -1.44177903      -0.15816794       0.00000000
Si       1.82458167      -0.48249351      -1.37606793       0.00000000
Si      -0.67137606       2.20345056      -0.39055209       0.00000000
Si       0.44044902      -0.39943080       2.33419406       0.00000000
Si      -2.39915862       2.02220802       1.26860012       0.00000000
Si       3.37123898       0.60362595       0.16310426       0.00000000
Si      -3.49672995      -0.03391578       0.82950755       0.00000000
Si       2.29959318      -1.83775635       2.11846999       0.00000000
Si      -1.20365181       2.12012721      -2.83457928       0.00000000
Si       1.75902908      -2.84056386      -1.76792266       0.00000000
