10
Lattice="16.28999089631971 0.0 0.0 0.0 16.28999089631971 0.0 0.0 0.0 34.279985188174585" Properties=species:S:1:pos:R:3:initial_magmoms:R:1 pbc="T T T"
Si      -1.34579835      -1.35086454      -1.34440007       0.00000000
Si       1.35640314      -1.35413883       1.35800237       0.00000000
Si      -1.35713619       1.36054080       1.35909933       0.00000000
Si       1.37368683       1.34540739      -1.38556350       0.00000000
Si      -0.03259629       2.67156000      -2.72069082       0.00000000
Si      -2.75864634      -0.06818994      -2.63652655       0.00000000
Si      -0.00013032      -2.71252935       2.71501062       0.00000000
Si       2.71578735      -2.71228500      -0.00517628       0.00000000
Si       0.00136836      -2.64650598      -2.78069111       0.00000000
Si      -2.71461447      -2.71508688       0.00030852       0.00000000
