10
Lattice="16.28999089631971 0.0 0.0 0.0 16.28999089631971 0.0 0.0 0.0 34.279985188174585" Properties=species:S:1:pos:R:3:initial_magmoms:R:1 pbc="T T T"
Si       1.35777150       1.35747828       1.35625409       0.00000000
Si      -1.35762489       1.35747828      -1.35748817       0.00000000
Si       1.35783666      -1.35782037      -1.35834517       0.00000000
Si      -1.35912357      -1.35806472       1.35752245       0.00000000
Si      -2.71454931       0.00035838      -2.71398222       0.00000000
Si       2.71221976       0.00285075       2.71665606       0.00000000
Si      -0.00100998      -2.71432125      -2.71507918       0.00000000
Si       2.71404356       0.00001629      -2.71552482       0.00000000
Si      -2.71498914       2.71474479      -0.00044564       0.00000000
Si       2.71527028       2.71482624      -0.00054848       0.00000000
