10
Lattice="16.28999089631971 0.0 0.0 0.0 16.28999089631971 0.0 0.0 0.0 34.279985188174585" Properties=species:S:1:pos:R:3:initial_magmoms:R:1 pbc="T T T"
Si      -1.72489923       0.58256298      -1.45103830       0.00000000
Si      -0.07569963      -2.05047117       1.14351238       0.00000000
Si       1.77056010      -0.38874456      -1.51411351       0.00000000
Si       0.37550079       2.01352545       1.21841419       0.00000000
Si      -1.55908332       2.93690781      -1.40575442       0.00000000
Si      -1.75228272      -1.58763969       2.77054423       0.00000000
Si       1.92600940       3.11922549      -0.16214442       0.00000000
Si      -3.71278422       0.33629076      -0.26707551       0.00000000
Si       1.80946062      -2.68929981      -1.88204080       0.00000000
Si      -1.14590376      -3.58008588      -0.24976411       0.00000000
