10
Lattice="16.28999089631971 0.0 0.0 0.0 16.28999089631971 0.0 0.0 0.0 34.279985188174585" Properties=species:S:1:pos:R:3:initial_magmoms:R:1 pbc="T T T"
Si      -0.66246543      -1.82154780       1.36629813       0.00000000
Si      -1.85489343       0.22929804      -1.46954951       0.00000000
Si       0.53667405       1.84140531       1.40787978       0.00000000
Si       1.67658309      -0.46283148      -1.62703185       0.00000000
Si       1.75228272       1.58763969      -2.77054423       0.00000000
Si       0.60637896      -1.99244619      -3.02030834       0.00000000
Si       0.41036139       0.83828340       3.56110969       0.00000000
Si      -1.65954375      -1.55263248      -2.91366325       0.00000000
Si       1.36067112      -3.01988907       1.64029821       0.00000000
Si      -1.26480447      -0.77323743       3.39142367       0.00000000
