10
Lattice="16.28999089631971 0.0 0.0 0.0 16.28999089631971 0.0 0.0 0.0 34.279985188174585" Properties=species:S:1:pos:R:3:initial_magmoms:R:1 pbc="T T T"
Si       1.55050861       1.10570004      -1.38055862       0.00000000
Si       0.35826597      -0.50714028       2.27554097       0.00000000
Si      -1.72696806       1.59702273      -0.37447477       0.00000000
Si      -0.37550079      -2.01352545      -1.21841419       0.00000000
Si      -1.93458411       0.92338236      -2.62416861       0.00000000
Si      -2.10040002      -1.43096247      -2.66945250       0.00000000
Si       2.27279124      -1.90737981       2.30608445       0.00000000
Si       0.20649204       1.50127011      -3.44270656       0.00000000
Si      -1.59110946      -1.75975983       2.96000982       0.00000000
Si      -3.46690296       1.08209583       1.10429606       0.00000000
