10
Lattice="16.28999089631971 0.0 0.0 0.0 16.28999089631971 0.0 0.0 0.0 34.279985188174585" Properties=species:S:1:pos:R:3:initial_magmoms:R:1 pbc="T T T"
Si      -0.82668492       2.16708120      -0.06204681       0.00000000
Si      -0.93297717      -0.74354076       2.00119809       0.00000000
Si       2.25859221      -0.04263093       0.60421936       0.00000000
Si      -0.87570153      -1.14935724      -1.88995948       0.00000000
Si       3.17583324       0.44491248      -1.49957879       0.00000000
Si      -2.83950990       1.79633088      -1.13339978       0.00000000
Si       0.69320466      -2.82610323      -2.06708426       0.00000000
Si      -1.08134649       2.59596204       2.24486036       0.00000000
Si      -0.14906979      -2.90423007       2.18140808       0.00000000
Si       2.62202211       1.68458148       2.21222580       0.00000000
