10
Lattice="16.28999089631971 0.0 0.0 0.0 16.28999089631971 0.0 0.0 0.0 34.279985188174585" Properties=species:S:1:pos:R:3:initial_magmoms:R:1 pbc="T T T"
Si       2.34509700       0.28601982      -0.08069513       0.00000000
Si      -0.12914549      -1.14207561       2.11387647       0.00000000
Si      -1.04961587       2.20931496      -0.14065086       0.00000000
Si      -1.23232451      -1.21252986      -1.73830474       0.00000000
Si       2.32664043       1.40198256       2.05786294       0.00000000
Si      -3.34256369      -0.36976671      -1.00275869       0.00000000
Si      -3.15737897       1.46054511       0.65536512       0.00000000
Si      -0.67503154       3.06310644      -2.32106481       0.00000000
Si      -0.19469808      -3.50014596       1.72202174       0.00000000
Si       1.41751182      -0.05595615       3.65304866       0.00000000
