10
Lattice="16.28999089631971 0.0 0.0 0.0 16.28999089631971 0.0 0.0 0.0 34.279985188174585" Properties=species:S:1:pos:R:3:initial_magmoms:R:1 pbc="T T T"
Si       1.46472675       1.76766048       0.43823558       0.00000000
Si      -0.37458433      -0.85379148       2.18041396       0.00000000
Si      -2.16643546       0.95449626      -0.29090012       0.00000000
Si       1.11589921      -1.29639078      -1.74406378       0.00000000
Si      -0.28127521       0.31566762      -3.31645330       0.00000000
Si       1.66266654       2.60705160      -1.73919602       0.00000000
Si       0.24601973       1.17788103       3.39128655       0.00000000
Si      -3.23663959      -0.57511845      -1.68417661       0.00000000
Si       0.55755620       3.11111307       2.09008614       0.00000000
Si       0.17387783      -3.44333133      -1.64266353       0.00000000
