10
Lattice="16.28999089631971 0.0 0.0 0.0 16.28999089631971 0.0 0.0 0.0 34.279985188174585" Properties=species:S:1:pos:R:3:initial_magmoms:R:1 pbc="T T T"
Si       1.27721745       0.91368981       1.74375526       0.00000000
Si      -1.86981507       1.35650088       0.47265270       0.00000000
Si       0.89072091      -0.18018369      -2.22100148       0.00000000
Si      -0.08780310      -2.28674133       0.74874385       0.00000000
Si      -2.06775486       0.51710976       2.65008430       0.00000000
Si       0.11715768      -0.16278597       3.48994440       0.00000000
Si      -2.41658240      -2.54694150       0.46778494       0.00000000
Si       3.39983703       0.34013520       0.97598600       0.00000000
Si      -0.82648944      -1.17129987      -3.55648189       0.00000000
Si      -2.27151344      -2.36938050      -2.09159447       0.00000000
