10
Lattice="16.28999089631971 0.0 0.0 0.0 16.28999089631971 0.0 0.0 0.0 34.279985188174585" Properties=species:S:1:pos:R:3:initial_magmoms:R:1 pbc="T T T"
Si       1.35875704       1.35546809      -1.35769385       0.00000000
Si      -1.35690883      -1.35840756      -1.35680257       0.00000000
Si       1.35763303      -1.35778612       1.35676829       0.00000000
Si      -1.35742605       1.35714596       1.35783097       0.00000000
Si       2.71569775       0.00089269      -2.71192542       0.00000000
Si      -0.00007168      -2.71449785       2.71415362       0.00000000
Si       0.00084708      -2.71405802      -2.71480494       0.00000000
Si       2.71442714      -0.00119731       2.71473638       0.00000000
Si       0.00131786       2.71478714       2.71473638       0.00000000
Si      -2.71471125       2.71483601      -0.00034280       0.00000000
