10
Lattice="16.28999089631971 0.0 0.0 0.0 16.28999089631971 0.0 0.0 0.0 34.279985188174585" Properties=species:S:1:pos:R:3:initial_magmoms:R:1 pbc="T T T"
Si       1.23133341       1.56637539       1.14072371       0.00000000
Si      -0.39713132       0.88966273      -2.09714067       0.00000000
Si      -1.64791010      -1.19887884       1.11285064       0.00000000
Si      -0.77215970      -1.25835363      -3.06126579       0.00000000
Si       1.91638166       1.60045082      -2.41189967       0.00000000
Si      -0.20530991      -2.51447553       2.44618169       0.00000000
Si       2.51749895       0.19129958       2.46550533       0.00000000
Si       2.53010741      -2.63955015      -0.36850289       0.00000000
Si       3.01815581       2.17237643      -0.30402220       0.00000000
Si       1.44783239      -2.11175415      -2.74283883       0.00000000
