10
Lattice="16.28999089631971 0.0 0.0 0.0 16.28999089631971 0.0 0.0 0.0 34.279985188174585" Properties=species:S:1:pos:R:3:initial_magmoms:R:1 pbc="T T T"
Si      -1.35543880       1.35270531       1.35861941       0.00000000
Si       1.35770471       1.35671173      -1.35738533       0.00000000
Si      -1.35694532      -1.35826020      -1.35693969       0.00000000
Si       1.36060433      -1.36104579       1.36143037       0.00000000
Si       2.71449881       2.71330054       0.00058276       0.00000000
Si       0.00007168       2.71449785      -2.71415362       0.00000000
Si      -2.71472103      -0.00084708      -2.71425646       0.00000000
Si      -2.71599165       2.71324189       0.00075416       0.00000000
Si       2.71550879      -0.00068418      -2.71387938       0.00000000
Si       0.00033557      -2.71583622      -2.71415362       0.00000000
