10
Lattice="16.28999089631971 0.0 0.0 0.0 16.28999089631971 0.0 0.0 0.0 34.279985188174585" Properties=species:S:1:pos:R:3:initial_magmoms:R:1 pbc="T T T"
Si       1.35464382      -1.35545832      -1.36149893       0.00000000
Si       1.37218815       1.34757396       1.35772813       0.00000000
Si      -1.36060433       1.36104579      -1.36143037       0.00000000
Si      -1.36294195      -1.35580041       1.37589653       0.00000000
Si       0.03754845       2.66054796       2.74020643       0.00000000
Si       2.71378368      -2.70940167      -0.00246816       0.00000000
Si      -2.71604314       2.71375110      -0.00281096       0.00000000
Si      -2.72060017      -2.70918990      -0.00116552       0.00000000
Si       2.71215468       0.00276930      -2.71809582       0.00000000
Si       2.70958086       2.72069393      -0.00119980       0.00000000
