10
Lattice="16.28999089631971 0.0 0.0 0.0 16.28999089631971 0.0 0.0 0.0 34.279985188174585" Properties=species:S:1:pos:R:3:initial_magmoms:R:1 pbc="T T T"
Si      -1.36040211       1.30526883      -1.46005395       0.00000000
Si      -1.14848550      -1.43117424       1.52484315       0.00000000
Si       1.34396662      -1.40423058      -1.44819306       0.00000000
Si       1.07041191       1.68673176       1.38288966       0.00000000
Si       1.87111754      -0.17990676       2.72502039       0.00000000
Si      -2.47771692       2.77236971       0.01405480       0.00000000
Si       2.74445702       2.61211779      -0.08388317       0.00000000
Si      -2.57781897      -2.80971549       0.07476469       0.00000000
Si      -2.54712861      -0.11725542       2.85538724       0.00000000
Si       0.49625294      -2.21711787       3.08969107       0.00000000
