10
Lattice="16.28999089631971 0.0 0.0 0.0 16.28999089631971 0.0 0.0 0.0 34.64500226677339" Properties=species:S:1:pos:R:3:initial_magmoms:R:1 pbc="T T T"
Si       1.34025975      -1.53264465       1.08580962       0.00000000
Si      -2.00846633      -0.92494620      -0.72338805       0.00000000
Si      -0.44218065       2.00225996       1.18021731       0.00000000
Si       1.13728635      -0.31455990      -2.09214357       0.00000000
Si       3.37196484      -0.44212689       0.69591455       0.00000000
Si      -2.45455181       0.89765298      -2.28986270       0.00000000
Si      -1.13456918      -2.94995610      -1.55126549       0.00000000
Si       0.49620969      -3.49115877       0.05931228       0.00000000
Si       1.34762283       1.88230040      -2.80475702       0.00000000
Si      -0.86750929       2.68482725      -2.33493588       0.00000000
