10
Lattice="16.28999089631971 0.0 0.0 0.0 16.28999089631971 0.0 0.0 0.0 34.64500226677339" Properties=species:S:1:pos:R:3:initial_magmoms:R:1 pbc="T T T"
Si      -1.39802409       1.26804292       1.53257103       0.00000000
Si       1.17061569       1.74465574      -1.23784726       0.00000000
Si      -1.61060859      -1.21133580      -1.40403943       0.00000000
Si       1.32030450      -1.42508489       1.51208197       0.00000000
Si      -0.80065350       3.20979463      -1.16695646       0.00000000
Si      -2.73297330       2.63415490       0.15047372       0.00000000
Si      -2.69907381      -2.70138114       0.12725463       0.00000000
Si       2.90506086      -2.61993114       0.12717841       0.00000000
Si      -0.04338027       2.63773870       2.90685589       0.00000000
Si       2.66911650      -0.08097107       2.90307959       0.00000000
