10
Lattice="16.28999089631971 0.0 0.0 0.0 16.28999089631971 0.0 0.0 0.0 34.64500226677339" Properties=species:S:1:pos:R:3:initial_magmoms:R:1 pbc="T T T"
Si      -1.56942747      -0.96844050       1.43880775       0.00000000
Si       1.32641325      -1.38450013      -1.39179445       0.00000000
Si      -1.37482713       1.36583505      -1.38535048       0.00000000
Si       1.77536565       0.97217091       1.26267246       0.00000000
Si      -2.58391980      -2.63346274       0.02809711       0.00000000
Si      -2.54211966       2.81168658       0.21486842       0.00000000
Si       2.75107149      -2.65965396       0.06090595       0.00000000
Si      -3.36471579       0.94913685       1.60170864       0.00000000
Si       0.25552494      -1.80996887       3.39108936       0.00000000
Si       2.68807806      -0.01470987      -2.76346015       0.00000000
