10
Lattice="16.28999089631971 0.0 0.0 0.0 16.28999089631971 0.0 0.0 0.0 34.64500226677339" Properties=species:S:1:pos:R:3:initial_magmoms:R:1 pbc="T T T"
Si      -1.14503713       1.53237098       1.36193045       0.00000000
Si       1.34865562       1.36611524      -1.36847835       0.00000000
Si      -1.36921391      -1.34697028      -1.36996809       0.00000000
Si       1.50552832      -1.24993349       1.42695915       0.00000000
Si      -2.44877863      -0.04664479       2.46163272       0.00000000
Si       2.52002065       0.41508875       2.83766979       0.00000000
Si      -2.71103134      -2.70531681       0.00987383       0.00000000
Si      -0.00911914      -2.70147237      -2.72836474       0.00000000
Si       2.73315901      -2.69840985       0.00772584       0.00000000
Si       2.70817015       0.01305481      -2.72940409       0.00000000
