10
Lattice="16.28999089631971 0.0 0.0 0.0 16.28999089631971 0.0 0.0 0.0 34.64500226677339" Properties=species:S:1:pos:R:3:initial_magmoms:R:1 pbc="T T T"
Si      -1.00082502      -2.11282115      -0.45430017       0.00000000
Si       1.84844259       0.69672330       1.33282863       0.00000000
Si       1.25996634       0.34448463      -2.03650366       0.00000000
Si      -1.24209621       1.44651942       1.56162435       0.00000000
Si       1.70678475       2.93451318       0.19435857       0.00000000
Si      -0.67171815       3.33897759       0.34367861       0.00000000
Si       2.67545331      -1.50368103      -1.72757400       0.00000000
Si       0.89990847      -3.12548804      -1.55899133       0.00000000
Si      -0.57761082      -3.18905162       1.68530708       0.00000000
Si      -3.45725928       0.96640425       0.89176286       0.00000000
