10
Lattice="16.28999089631971 0.0 0.0 0.0 16.28999089631971 0.0 0.0 0.0 34.64500226677339" Properties=species:S:1:pos:R:3:initial_magmoms:R:1 pbc="T T T"
Si      -1.34359920      -1.36472733      -1.37973799       0.00000000
Si       1.39572720      -1.28891367       1.40977522       0.00000000
Si       1.37433843       1.34886087      -1.37564987       0.00000000
Si      -1.18954467       1.55657466       1.43305667       0.00000000
Si       2.35454031       0.52084017       2.59667902       0.00000000
Si       0.84434328       2.43209700       2.78196059       0.00000000
Si      -2.68969077      -2.69819415       0.00488495       0.00000000
Si      -2.69728191       2.72890080      -0.00169761       0.00000000
Si      -2.69641854      -0.00537570      -2.73726851       0.00000000
Si       2.74163958      -2.70111006      -0.00086613       0.00000000
