10
Lattice="16.28999089631971 0.0 0.0 0.0 16.28999089631971 0.0 0.0 0.0 34.64500226677339" Properties=species:S:1:pos:R:3:initial_magmoms:R:1 pbc="T T T"
Si       1.26175824       1.00944243      -1.83445390       0.00000000
Si       1.49449347      -0.19565919       1.95536502       0.00000000
Si      -1.24519131       1.89470619       1.18995256       0.00000000
Si      -1.40568039      -1.79947485      -1.66240672       0.00000000
Si       0.65909340      -2.29449537       2.72722146       0.00000000
Si      -1.66488687      -2.31541173       2.25913257       0.00000000
Si       3.29564619       1.88496477      -0.48554998       0.00000000
Si      -2.92991451       2.44685574      -0.41889296       0.00000000
Si      -0.24597900       2.18176857      -3.26920818       0.00000000
Si       0.98174943       1.59871689       3.51556892       0.00000000
