10
Lattice="16.28999089631971 0.0 0.0 0.0 16.28999089631971 0.0 0.0 0.0 34.64500226677339" Properties=species:S:1:pos:R:3:initial_magmoms:R:1 pbc="T T T"
Si       0.38226114      -2.22329178      -0.65988373       0.00000000
Si       1.79245386       1.54391733      -0.11748127       0.00000000
Si      -1.74118923       0.74968209       1.51520002       0.00000000
Si      -0.58832964       0.10479357      -2.35392135       0.00000000
Si       0.89555904      -1.76555907      -2.98279778       0.00000000
Si      -0.82924245       2.87883396       2.00747113       0.00000000
Si      -1.79045019      -3.12678405      -0.57018777       0.00000000
Si       0.77048442       3.56120577       0.46836605       0.00000000
Si       1.63251864      -1.85976414       2.75140368       0.00000000
Si       2.44960875       0.50023332       2.85852609       0.00000000
