10
Lattice="16.28999089631971 0.0 0.0 0.0 16.28999089631971 0.0 0.0 0.0 34.64500226677339" Properties=species:S:1:pos:R:3:initial_magmoms:R:1 pbc="T T T"
Si       0.82259613       1.86254973      -1.38684022       0.00000000
Si      -1.86976946      -0.80029512      -1.63864023       0.00000000
Si       1.79528832      -1.91757735      -0.16290089       0.00000000
Si       0.56338965       1.34661285       2.53469907       0.00000000
Si      -1.24607260      -1.90845495       2.27926133       0.00000000
Si       1.98988866       0.41669820      -2.98705912       0.00000000
Si       3.36471579      -0.94913685      -1.60170864       0.00000000
Si      -0.72473233      -2.33266610      -3.00057068       0.00000000
Si      -0.15923475      -0.55555416       3.83832195       0.00000000
Si       0.78079599      -3.58259959      -1.57361153       0.00000000
