10
Lattice="16.28999089631971 0.0 0.0 0.0 16.28999089631971 0.0 0.0 0.0 34.64500226677339" Properties=species:S:1:pos:R:3:initial_magmoms:R:1 pbc="T T T"
Si       1.99669788      -1.07831655      -0.49732929       0.00000000
Si      -0.97114464       1.29057525      -1.68568817       0.00000000
Si       0.56449737       1.33524243       1.86154630       0.00000000
Si      -1.24291071      -1.88879292       0.68285338       0.00000000
Si       1.14880338      -0.63776979       3.17261786       0.00000000
Si      -1.94070915      -0.37611981      -2.97649239       0.00000000
Si      -3.13369101       1.24346457       1.20627036       0.00000000
Si       2.24756388       2.69301393       0.78502155       0.00000000
Si       1.23634584      -2.94034500      -1.68849442       0.00000000
Si      -3.41743023      -1.06969914       0.50114024       0.00000000
