10
Lattice="16.28999089631971 0.0 0.0 0.0 16.28999089631971 0.0 0.0 0.0 34.64500226677339" Properties=species:S:1:pos:R:3:initial_magmoms:R:1 pbc="T T T"
Si       1.61528382       1.13668362       1.24859134       0.00000000
Si      -1.12768665      -1.53737852       1.35095005       0.00000000
Si       0.89578710      -1.56337411      -1.49036582       0.00000000
Si      -0.15055218       2.22045732      -1.92228530       0.00000000
Si       0.92620053       0.38304306      -3.00081947       0.00000000
Si       0.23618871       2.51586018       2.61618278       0.00000000
Si      -2.48065346      -0.20036700       2.65733413       0.00000000
Si      -1.13385568      -2.94851348      -1.82333912       0.00000000
Si      -2.74343867      -2.45922799      -0.08492122       0.00000000
Si       2.73764853      -2.70880708      -0.30592182       0.00000000
