10
Lattice="16.28999089631971 0.0 0.0 0.0 16.28999089631971 0.0 0.0 0.0 34.64500226677339" Properties=species:S:1:pos:R:3:initial_magmoms:R:1 pbc="T T T"
Si      -0.83852775      -2.10561282       0.56499101       0.00000000
Si       1.82534337      -0.69410061      -1.32004461       0.00000000
Si       0.87601104       1.00869309       1.95023756       0.00000000
Si      -1.52361999       1.45748259      -1.24992309       0.00000000
Si      -0.76251861       0.28458630       3.45428188       0.00000000
Si       1.78540029       1.22109840      -2.83704618       0.00000000
Si      -0.45965493      -2.06571861       2.95511641       0.00000000
Si      -0.45022302      -3.41280387      -1.45581845       0.00000000
Si      -3.15742554      -2.08279053       0.30189672       0.00000000
Si       1.41783273       3.27657779       1.35271487       0.00000000
