10
Lattice="16.28999089631971 0.0 0.0 0.0 16.28999089631971 0.0 0.0 0.0 34.64500226677339" Properties=species:S:1:pos:R:3:initial_magmoms:R:1 pbc="T T T"
Si      -2.03170509      -1.09051776       0.38989507       0.00000000
Si       1.97012889      -0.65013390       1.09727713       0.00000000
Si      -0.09405846      -0.64785330      -2.28192899       0.00000000
Si      -0.37313874       2.34213452       0.28024358       0.00000000
Si      -3.37196484       0.44212689      -0.69591455       0.00000000
Si       3.47548779       0.27297153      -0.54621341       0.00000000
Si      -2.23467849       0.12756699      -2.78805812       0.00000000
Si       1.93082112      -2.98478412       0.77649887       0.00000000
Si      -2.46931965      -1.19265606       2.62585012       0.00000000
Si       1.57982049       3.45972626       0.91871668       0.00000000
