10
Lattice="16.28999089631971 0.0 0.0 0.0 16.28999089631971 0.0 0.0 0.0 34.64500226677339" Properties=species:S:1:pos:R:3:initial_magmoms:R:1 pbc="T T T"
Si       1.33250571       1.35956340       1.38176818       0.00000000
Si      -1.38528531      -1.35709384       1.38065954       0.00000000
Si      -1.22116356       1.47422871      -1.42755505       0.00000000
Si       1.61280774      -1.19270819      -1.39686995       0.00000000
Si       2.68946271       2.70343953       0.01323093       0.00000000
Si       2.69915526      -2.70403316       0.03690734       0.00000000
Si       2.69177589       0.00223173       2.74293644       0.00000000
Si      -2.73409731      -2.70120765      -0.01033807       0.00000000
Si      -2.72621295       2.71992501       0.00158674       0.00000000
Si      -0.02168199      -2.71305782       2.74165457       0.00000000
