10
Lattice="16.28999089631971 0.0 0.0 0.0 16.28999089631971 0.0 0.0 0.0 34.64500226677339" Properties=species:S:1:pos:R:3:initial_magmoms:R:1 pbc="T T T"
Si      -1.35783666      -1.35432904       1.35721872       0.00000000
Si      -1.35786924       1.35776115      -1.35718408       0.00000000
Si       1.35780408      -1.35802687      -1.35739195       0.00000000
Si       1.35956340       1.35729363       1.35735730       0.00000000
Si       2.70914103       0.00095009       2.71488783       0.00000000
Si      -2.71397916      -0.00166875       2.71325951       0.00000000
Si      -2.71370223       0.00127589      -2.71381383       0.00000000
Si       0.00143352      -2.71315939      -2.71461067       0.00000000
Si       2.71492398      -2.71477210       0.00017323       0.00000000
Si      -2.71495656       2.71480612       0.00003465       0.00000000
