10
Lattice="16.28999089631971 0.0 0.0 0.0 16.28999089631971 0.0 0.0 0.0 34.64500226677339" Properties=species:S:1:pos:R:3:initial_magmoms:R:1 pbc="T T T"
Si       1.56155940       1.74830633       0.28769226       0.00000000
Si      -2.26367469       0.23375987       0.74434829       0.00000000
Si       1.40618538      -1.69905582       0.97293614       0.00000000
Si      -0.06882525      -0.27206255      -2.39972207       0.00000000
Si      -2.80549638      -2.03412483       1.34187098       0.00000000
Si       3.58549416       0.87783389      -0.73513271       0.00000000
Si       3.44263086      -1.56686247      -0.23406177       0.00000000
Si      -0.91183275       1.68387938      -3.41104489       0.00000000
Si       2.42818740       1.81918412       2.52316228       0.00000000
Si      -2.52946233       1.66263722       2.61043309       0.00000000
