10
Lattice="16.28999089631971 0.0 0.0 0.0 16.28999089631971 0.0 0.0 0.0 34.64500226677339" Properties=species:S:1:pos:R:3:initial_magmoms:R:1 pbc="T T T"
Si      -0.27350584      -1.18570023      -2.03539502       0.00000000
Si       0.15182280      -1.86826752       1.47975816       0.00000000
Si      -2.03494910       0.96790293       0.83269309       0.00000000
Si       2.13619404       1.00818810      -0.60258086       0.00000000
Si       3.43962210      -0.92771550      -0.90052805       0.00000000
Si       1.94162628      -1.98822708      -2.50521616       0.00000000
Si      -3.44139512      -1.01978658       1.06543835       0.00000000
Si      -1.98695876      -2.19936340       2.50452326       0.00000000
Si       1.92994635      -1.57055148       2.98768273       0.00000000
Si      -2.75477162       2.68807806      -0.64013606       0.00000000
