10
Lattice="16.28999089631971 0.0 0.0 0.0 16.28999089631971 0.0 0.0 0.0 34.64500226677339" Properties=species:S:1:pos:R:3:initial_magmoms:R:1 pbc="T T T"
Si      -1.34140005       1.01340090      -1.73391404       0.00000000
Si       2.05109019       1.28262573       0.06340039       0.00000000
Si      -1.58208480       0.70011162       1.70221385       0.00000000
Si       0.31358250      -2.48664311       0.23728375       0.00000000
Si       0.96352092       3.44865816       0.24708829       0.00000000
Si      -3.53504403      -0.41748012       1.06374074       0.00000000
Si      -1.07561241      -0.41547645      -3.59999884       0.00000000
Si      -0.52430994       3.37339836      -1.62679164       0.00000000
Si      -0.41638869       0.62739306       3.71051646       0.00000000
Si      -3.68825148       0.62532423      -1.11248629       0.00000000
