10
Lattice="16.28999089631971 0.0 0.0 0.0 16.28999089631971 0.0 0.0 0.0 34.64500226677339" Properties=species:S:1:pos:R:3:initial_magmoms:R:1 pbc="T T T"
Si      -0.21033648      -2.19686030       0.71261345       0.00000000
Si       0.42187842       0.18156834      -2.33833109       0.00000000
Si      -2.21513212       0.80252685       0.46982114       0.00000000
Si       1.49799582       1.06051158       1.60468811       0.00000000
Si       0.19456776       2.99641518       1.90263530       0.00000000
Si      -1.34762283      -1.88230040       2.80475702       0.00000000
Si       2.59458975       1.08506061      -2.42802705       0.00000000
Si      -1.94162628       1.98822708       2.50521616       0.00000000
Si       1.93028355      -2.97228059       1.21874257       0.00000000
Si      -2.73662552       2.18268081      -1.37578845       0.00000000
