10
Lattice="16.28999089631971 0.0 0.0 0.0 16.28999089631971 0.0 0.0 0.0 34.64500226677339" Properties=species:S:1:pos:R:3:initial_magmoms:R:1 pbc="T T T"
Si      -1.39572720       1.28891367      -1.40977522       0.00000000
Si       0.95881311       1.80975384       1.18690380       0.00000000
Si      -0.93522519      -1.80294462       1.24313267       0.00000000
Si       1.34591238      -1.41219639      -1.41064135       0.00000000
Si       2.61151506       0.81733446       2.55714905       0.00000000
Si       2.81290833      -2.58517413       0.05186360       0.00000000
Si      -0.02138877       2.63777454      -2.78542509       0.00000000
Si      -2.58527187       2.84548833       0.02328145       0.00000000
Si       0.92357784      -3.47498280       1.40003997       0.00000000
Si       2.68670970      -0.07364709      -2.78826599       0.00000000
