10
Lattice="16.28999089631971 0.0 0.0 0.0 16.28999089631971 0.0 0.0 0.0 34.64500226677339" Properties=species:S:1:pos:R:3:initial_magmoms:R:1 pbc="T T T"
Si      -0.80472600      -0.62014401       2.12328944       0.00000000
Si       1.43084844      -1.85020191      -0.42214959       0.00000000
Si       1.36285398       2.01693006       0.06689954       0.00000000
Si      -2.35010943       0.03956841      -0.88500708       0.00000000
Si      -2.86285347       1.83394449       0.67519683       0.00000000
Si       2.61394227      -0.78348384      -2.14095840       0.00000000
Si       3.31361406       0.91171872      -0.61318224       0.00000000
Si       2.51880867      -1.78321743       1.74032337       0.00000000
Si      -1.82669544       1.39714443       2.70913676       0.00000000
Si       0.96124032       0.20893554      -3.51120365       0.00000000
