10
Lattice="16.28999089631971 0.0 0.0 0.0 16.28999089631971 0.0 0.0 0.0 34.64500226677339" Properties=species:S:1:pos:R:3:initial_magmoms:R:1 pbc="T T T"
Si      -1.77812355      -0.29771604      -1.50792457       0.00000000
Si       0.23288184      -1.80371188       1.54489080       0.00000000
Si       1.66288320      -0.39996837      -1.71198374       0.00000000
Si      -0.32742900       1.91624157       1.53165641       0.00000000
Si      -1.87313334      -1.37861781       2.72316799       0.00000000
Si      -1.33594290      -2.29997600      -2.68814187       0.00000000
Si       3.61584243       0.71762337      -1.07351064       0.00000000
Si      -1.92994635       1.57055148      -2.98768273       0.00000000
Si       2.03602194      -2.74210289      -1.99222732       0.00000000
Si      -3.53883050       0.13012452       1.77306292       0.00000000
