10
Lattice="16.28999089631971 0.0 0.0 0.0 16.28999089631971 0.0 0.0 0.0 34.64500226677339" Properties=species:S:1:pos:R:3:initial_magmoms:R:1 pbc="T T T"
Si       1.35532800       1.35466011      -1.35742659       0.00000000
Si       1.35220032      -1.36132272       1.36085645       0.00000000
Si      -1.35982404      -1.36039419      -1.35728801       0.00000000
Si      -1.36502055       1.35679410       1.35680298       0.00000000
Si       2.71254564       2.71251306       0.00010394       0.00000000
Si      -2.71479366       2.71249677      -0.00038110       0.00000000
Si      -0.00285075       2.71275741      -2.71461067       0.00000000
Si       2.71308321      -0.00311139      -2.71495712       0.00000000
Si      -2.71407690      -2.71580364      -0.00100471       0.00000000
Si       2.71450044      -2.71552671       0.00090077       0.00000000
