10
Lattice="16.28999089631971 0.0 0.0 0.0 16.28999089631971 0.0 0.0 0.0 34.64500226677339" Properties=species:S:1:pos:R:3:initial_magmoms:R:1 pbc="T T T"
Si      -1.33224507      -1.34384355       1.37644671       0.00000000
Si      -1.34977311       1.35570267      -1.35718408       0.00000000
Si       1.36502055      -1.35679410      -1.35680298       0.00000000
Si       1.35182565       1.37604888       1.37166570       0.00000000
Si      -2.60786610       0.11875410       2.76422234       0.00000000
Si       0.14856480      -2.47215411       2.89888754       0.00000000
Si      -2.70814734       2.71068858       0.00568178       0.00000000
Si      -2.70945054      -0.00187335      -2.71422957       0.00000000
Si       0.00516393       2.71301805      -2.71409099       0.00000000
Si      -2.70909216      -2.71981098       0.00453850       0.00000000
