10
Lattice="16.28999089631971 0.0 0.0 0.0 16.28999089631971 0.0 0.0 0.0 34.64500226677339" Properties=species:S:1:pos:R:3:initial_magmoms:R:1 pbc="T T T"
Si      -0.63122121      -1.75532895       1.39792662       0.00000000
Si      -1.46680047       1.22862438      -1.38320249       0.00000000
Si       1.27562103      -1.46259765      -1.38777563       0.00000000
Si       0.94364712       1.87740621       1.27583757       0.00000000
Si       0.58925817      -0.40169511       3.13087060       0.00000000
Si      -2.66510916      -2.63085129       0.04902271       0.00000000
Si       2.75643090      -2.59090821       0.13466520       0.00000000
Si      -2.71982727       2.63176353       0.09877296       0.00000000
Si      -0.10028124       2.59193448      -2.75854056       0.00000000
Si       2.60786610      -0.11875410      -2.76422234       0.00000000
