10
Lattice="16.28999089631971 0.0 0.0 0.0 16.28999089631971 0.0 0.0 0.0 34.64500226677339" Properties=species:S:1:pos:R:3:initial_magmoms:R:1 pbc="T T T"
Si      -1.24098849      -1.37275830       1.45796645       0.00000000
Si       2.29009707       0.09482409       0.58979685       0.00000000
Si      -0.22506264      -1.31393511      -1.96988128       0.00000000
Si      -0.13893741       2.41434090      -0.37139463       0.00000000
Si       1.80597456       2.67530670      -1.76433237       0.00000000
Si       3.30551793       0.90339453      -1.35167552       0.00000000
Si       2.27473560       1.87369209       2.23626686       0.00000000
Si      -0.91639395       0.14296104      -3.62975892       0.00000000
Si      -1.31404914      -0.31713372       3.54934782       0.00000000
Si       0.55675962       3.39765417       1.62679164       0.00000000
