10
Lattice="16.28999089631971 0.0 0.0 0.0 16.28999089631971 0.0 0.0 0.0 34.64500226677339" Properties=species:S:1:pos:R:3:initial_magmoms:R:1 pbc="T T T"
Si      -2.10281094       0.36515664      -0.88469527       0.00000000
Si      -0.34326288      -0.97725339       2.09304434       0.00000000
Si       0.74950290      -1.82485467      -1.31408567       0.00000000
Si       0.79918740       2.33978157      -0.33193395       0.00000000
Si      -1.18161144       1.10283300       2.85183960       0.00000000
Si      -1.47075894       0.10601532      -3.12141251       0.00000000
Si      -2.44912005       2.65123008      -0.64858945       0.00000000
Si       1.51350390      -3.41399304       0.30795960       0.00000000
Si       2.68856676      -1.19200446      -2.39688118       0.00000000
Si       1.46074059      -2.44623672       2.53674313       0.00000000
