10
Lattice="16.28999089631971 0.0 0.0 0.0 16.28999089631971 0.0 0.0 0.0 34.64500226677339" Properties=species:S:1:pos:R:3:initial_magmoms:R:1 pbc="T T T"
Si       1.80682164       0.95609268      -1.17910867       0.00000000
Si       1.59207057      -0.95211792       1.47747159       0.00000000
Si      -0.94364712      -1.87740621      -1.27583757       0.00000000
Si      -1.78673607       1.72084302       0.23174055       0.00000000
Si      -0.35438895      -2.27910132       1.85503304       0.00000000
Si      -1.91295099      -0.64325952       2.43516393       0.00000000
Si       0.32700546       2.09492658      -2.66555332       0.00000000
Si      -2.41044759      -0.64878183      -2.65904005       0.00000000
Si      -0.98300376       3.50147557      -1.20873016       0.00000000
Si      -3.66347439       0.75435732      -1.17706461       0.00000000
