10
Lattice="16.28999089631971 0.0 0.0 0.0 16.28999089631971 0.0 0.0 0.0 34.64500226677339" Properties=species:S:1:pos:R:3:initial_magmoms:R:1 pbc="T T T"
Si       1.78214229      -0.60562962      -1.39127478       0.00000000
Si      -0.89606403      -2.07721935       0.82486332       0.00000000
Si       0.32778738       1.43197245       1.90852495       0.00000000
Si      -1.60322922       1.23525441      -1.33123496       0.00000000
Si      -3.24175887       0.51114762       0.17280937       0.00000000
Si      -2.93889519      -1.83915729      -0.32635610       0.00000000
Si       2.60845254       1.57032342      -1.70016979       0.00000000
Si       2.57486256       0.82538172       2.41264466       0.00000000
Si      -1.17757152       0.50886702       3.55201549       0.00000000
Si       1.08644526      -1.58894289      -3.38946105       0.00000000
