10
Lattice="16.28999089631971 0.0 0.0 0.0 16.28999089631971 0.0 0.0 0.0 34.64500226677339" Properties=species:S:1:pos:R:3:initial_magmoms:R:1 pbc="T T T"
Si       0.44571069       1.16071137       1.97005451       0.00000000
Si       1.68686208      -1.31520573      -1.05535665       0.00000000
Si      -0.61496379       1.71354510      -1.54977575       0.00000000
Si      -2.32722198      -0.39943080       0.41996695       0.00000000
Si      -2.09248308       1.64998152       1.69452265       0.00000000
Si      -2.51569728       2.72621199      -0.44508459       0.00000000
Si       0.49648662      -0.49252815       3.73715848       0.00000000
Si       1.02770352      -1.75198950      -3.31040111       0.00000000
Si       1.16058105       3.33535211      -1.71835843       0.00000000
Si       2.71968066       2.39774139       1.64286693       0.00000000
