10
Lattice="16.28999089631971 0.0 0.0 0.0 16.28999089631971 0.0 0.0 0.0 34.64500226677339" Properties=species:S:1:pos:R:3:initial_magmoms:R:1 pbc="T T T"
Si      -1.35527913      -1.35737795      -1.35753053       0.00000000
Si       1.35716877      -1.35723702       1.35708014       0.00000000
Si       1.35817875       1.35791159      -1.35624866       0.00000000
Si      -1.35806472       1.35769982       1.35718408       0.00000000
Si       2.71094922       0.00134555      -2.71260126       0.00000000
Si       0.00236205      -2.71264079       2.71488783       0.00000000
Si      -2.71324611      -0.00015476       2.71461067       0.00000000
Si       2.71454931      -2.71462817       0.00048503       0.00000000
Si       2.71453302       2.71525955       0.00006929       0.00000000
Si      -2.71500543      -2.71547525      -0.00013858       0.00000000
