10
Lattice="16.28999089631971 0.0 0.0 0.0 16.28999089631971 0.0 0.0 0.0 34.64500226677339" Properties=species:S:1:pos:R:3:initial_magmoms:R:1 pbc="T T T"
Si       1.26895842       1.94904963       0.65634993       0.00000000
Si      -2.02393476       0.87047244       1.02282497       0.00000000
Si      -0.14286330      -2.44469636       0.50107095       0.00000000
Si       1.46109897      -0.16353531      -2.02669912       0.00000000
Si      -1.15730676       0.94135023       3.25829499       0.00000000
Si       1.02113865       3.37804101      -1.28765152       0.00000000
Si      -3.58549416      -0.87783389       0.73513271       0.00000000
Si      -2.17930878      -2.57688971       1.70806886       0.00000000
Si      -1.58097708      -1.85097568      -2.97223105       0.00000000
Si      -0.40959576      -3.48416126      -1.59308203       0.00000000
