10
Lattice="16.28999089631971 0.0 0.0 0.0 16.28999089631971 0.0 0.0 0.0 34.64500226677339" Properties=species:S:1:pos:R:3:initial_magmoms:R:1 pbc="T T T"
Si      -1.45443636       1.17957682      -1.43908491       0.00000000
Si      -0.68716107      -2.24144440       0.34707383       0.00000000
Si       2.13878156       0.33109588      -1.02476509       0.00000000
Si       0.37807461       0.75893644       2.25622239       0.00000000
Si      -0.04799034       3.16726633      -1.67183016       0.00000000
Si       2.58096221      -1.67116408      -2.20498240       0.00000000
Si      -2.68693776      -2.23813753       1.63548754       0.00000000
Si      -3.65042610       1.21722301      -0.45513165       0.00000000
Si       2.04377176      -0.74980589       3.20632746       0.00000000
Si       1.98695876       2.19936340      -2.50452326       0.00000000
