10
Lattice="16.28999089631971 0.0 0.0 0.0 16.28999089631971 0.0 0.0 0.0 34.64500226677339" Properties=species:S:1:pos:R:3:initial_magmoms:R:1 pbc="T T T"
Si      -0.51795684       0.90000621      -2.13156960       0.00000000
Si      -1.83806586      -1.50866577       0.27847668       0.00000000
Si       1.99562274      -1.28684484       0.42616841       0.00000000
Si      -0.51023538       2.17813590       1.30850782       0.00000000
Si       1.09631700      -3.47815025       0.40763332       0.00000000
Si       1.01760372       2.69866656      -2.37907364       0.00000000
Si      -2.92270293       1.40248755      -1.93152925       0.00000000
Si       0.96484041       3.66642288      -0.15029010       0.00000000
Si      -3.63915342      -0.23835528       1.31682263       0.00000000
Si      -1.25304309      -3.37637033       1.61764535       0.00000000
