10
Lattice="16.28999089631971 0.0 0.0 0.0 16.28999089631971 0.0 0.0 0.0 34.64500226677339" Properties=species:S:1:pos:R:3:initial_magmoms:R:1 pbc="T T T"
Si       1.35573163       1.35689184       1.35656047       0.00000000
Si       1.35349012      -1.35980775      -1.35974781       0.00000000
Si      -1.35906433      -1.35819504       1.35683763       0.00000000
Si      -1.35631132       1.35770634      -1.36314302       0.00000000
Si      -0.00051598      -2.69679321      -2.70562029       0.00000000
Si      -0.00179786       2.71412577       2.71325951       0.00000000
Si       2.71347544      -0.00109143       2.71436815       0.00000000
Si       2.71337770       2.71555929      -0.00048503       0.00000000
Si       2.71415962      -2.71495656      -0.00086613       0.00000000
Si      -0.00142554      -2.71583622       2.71398706       0.00000000
