10
Lattice="16.28999089631971 0.0 0.0 0.0 16.28999089631971 0.0 0.0 0.0 34.64500226677339" Properties=species:S:1:pos:R:3:initial_magmoms:R:1 pbc="T T T"
Si       0.02254536       1.25722962       2.03937920       0.00000000
Si      -1.95359454      -0.04090419      -1.55552683       0.00000000
Si      -0.94319100      -2.31735024      -0.58841105       0.00000000
Si       0.46250568      -2.28434670       1.30033160       0.00000000
Si       0.84624921       2.51152704      -1.57984763       0.00000000
Si      -0.57638907       1.16048331      -3.05285002       0.00000000
Si       0.89471196      -3.11829044      -1.97445443       0.00000000
Si       2.82215032      -2.64743451       0.84374486       0.00000000
Si       0.27036513      -0.17176176       3.98338065       0.00000000
Si      -3.53494629       1.90433358      -0.46053627       0.00000000
