10
Lattice="16.28999089631971 0.0 0.0 0.0 16.28999089631971 0.0 0.0 0.0 34.64500226677339" Properties=species:S:1:pos:R:3:initial_magmoms:R:1 pbc="T T T"
Si       1.37720547       1.20138750      -1.49732319       0.00000000
Si      -1.37995848      -1.45727082      -1.41029490       0.00000000
Si       1.95359454       0.04090419       1.55552683       0.00000000
Si       1.01040354      -2.27644605       0.96711578       0.00000000
Si      -1.58135175       1.94523777       1.09499055       0.00000000
Si      -0.13724325       2.42984898      -2.86580154       0.00000000
Si       2.79984375       2.55243123      -0.02432081       0.00000000
Si       2.58875793      -0.29703186      -2.88104535       0.00000000
Si      -3.26928897      -2.34707949      -0.06211852       0.00000000
Si      -2.76444558       0.87851970       2.81379937       0.00000000
