10
Lattice="16.28999089631971 0.0 0.0 0.0 16.28999089631971 0.0 0.0 0.0 34.64500226677339" Properties=species:S:1:pos:R:3:initial_magmoms:R:1 pbc="T T T"
Si      -1.35677781      -1.35562122      -1.35579828       0.00000000
Si       1.35674519      -1.35726651       1.35673369       0.00000000
Si      -1.35775521       1.35777150       1.35753053       0.00000000
Si       1.36042589       1.35848826      -1.35642189       0.00000000
Si       2.71314741      -0.00060273      -2.71422957       0.00000000
Si      -2.71308321       0.00311139       2.71495712       0.00000000
Si       0.00141723      -2.71241532       2.71585789       0.00000000
Si       2.71427468      -2.71450044       0.00003465       0.00000000
Si       2.71543941       2.71443528       0.00020787       0.00000000
Si      -2.71568961      -2.71438641       0.00013858       0.00000000
