10
Lattice="16.28999089631971 0.0 0.0 0.0 16.28999089631971 0.0 0.0 0.0 34.64500226677339" Properties=species:S:1:pos:R:3:initial_magmoms:R:1 pbc="T T T"
Si       0.02042766      -0.44113320      -2.27815269       0.00000000
Si      -1.79600508      -0.51276033       1.45294292       0.00000000
Si       1.10609493       2.12094171       0.12700865       0.00000000
Si       1.38782070      -1.88950968       0.55556757       0.00000000
Si       2.38396724      -0.58039641      -2.61909435       0.00000000
Si       2.73687380       1.57973904       1.73758641       0.00000000
Si      -1.40172192       1.04684427       3.15716618       0.00000000
Si       3.35517704      -1.42514694      -0.61082638       0.00000000
Si      -0.81493983      -2.60913672      -2.50629015       0.00000000
Si       0.44936684      -3.68061147      -0.73987908       0.00000000
