10
Lattice="16.28999089631971 0.0 0.0 0.0 16.28999089631971 0.0 0.0 0.0 34.64500226677339" Properties=species:S:1:pos:R:3:initial_magmoms:R:1 pbc="T T T"
Si       1.34609157       1.33346682      -1.38462293       0.00000000
Si       1.37482713      -1.36583505       1.38535048       0.00000000
Si      -1.36596537      -1.38324906      -1.38198991       0.00000000
Si      -1.16729253       1.44585153       1.60021890       0.00000000
Si      -1.98988866      -0.41669820       2.98705912       0.00000000
Si      -0.19460034      -2.33427555       2.82415823       0.00000000
Si       2.68969077       2.69819415      -0.00488495       0.00000000
Si      -2.71149656       2.69145009       0.00983919       0.00000000
Si      -0.00672777       2.69281845      -2.74215346       0.00000000
Si       2.70640431      -0.02005299      -2.74191095       0.00000000
