10
Lattice="16.28999089631971 0.0 0.0 0.0 16.28999089631971 0.0 0.0 0.0 34.64500226677339" Properties=species:S:1:pos:R:3:initial_magmoms:R:1 pbc="T T T"
Si       1.73315372       0.05696613       1.52157470       0.00000000
Si      -1.99920654      -0.27802143       1.17758429       0.00000000
Si      -0.39428316      -1.55960460      -1.70422326       0.00000000
Si      -0.10163331       2.18080746      -0.93739035       0.00000000
Si      -2.68654680      -0.82818360      -2.00483811       0.00000000
Si      -3.42116064       0.80430246      -0.41054351       0.00000000
Si       1.40172192      -1.04684427      -3.15716618       0.00000000
Si       0.37426275       3.45377322       1.07316419       0.00000000
Si       3.56391710      -0.85240683       0.41477020       0.00000000
Si       1.10135061      -0.83772954       3.58329994       0.00000000
