10
Lattice="16.28999089631971 0.0 0.0 0.0 16.28999089631971 0.0 0.0 0.0 34.64500226677339" Properties=species:S:1:pos:R:3:initial_magmoms:R:1 pbc="T T T"
Si      -1.70846262      -0.98614773      -1.30827366       0.00000000
Si      -1.42019478       1.17180486       1.50489313       0.00000000
Si       1.07766495       1.80748953      -1.31894433       0.00000000
Si       1.29720528      -1.55142702       1.45481375       0.00000000
Si      -0.02603142      -1.20710529      -3.25622465       0.00000000
Si      -2.55459780       2.69125461       0.09070413       0.00000000
Si      -3.41309709       0.89373456      -1.29923131       0.00000000
Si      -0.07397289       2.51498052       2.86944620       0.00000000
Si       2.73911463       2.67348222       0.13043158       0.00000000
Si      -0.72927072       3.63913713      -1.10091451       0.00000000
