10
Lattice="16.28999089631971 0.0 0.0 0.0 16.28999089631971 0.0 0.0 0.0 34.64500226677339" Properties=species:S:1:pos:R:3:initial_magmoms:R:1 pbc="T T T"
Si      -1.44521622       1.20979314       1.39242153       0.00000000
Si      -1.66144968      -0.86599269      -1.44937591       0.00000000
Si       0.99952182       1.67594682      -1.34994469       0.00000000
Si       1.26736200      -1.51312923       1.35248275       0.00000000
Si       2.61527383       2.59779629       0.08592658       0.00000000
Si      -2.53156374       2.72111811      -0.04135576       0.00000000
Si      -0.24609303      -0.71449569      -3.66880528       0.00000000
Si      -0.09982512       2.55949199       2.74209803       0.00000000
Si       2.62092321      -0.15918588       2.73641625       0.00000000
Si      -3.46838535       0.96565491      -1.23134608       0.00000000
