10
Lattice="16.28999089631971 0.0 0.0 0.0 16.28999089631971 0.0 0.0 0.0 34.64500226677339" Properties=species:S:1:pos:R:3:initial_magmoms:R:1 pbc="T T T"
Si       1.35658233       1.35430173       1.35763446       0.00000000
Si      -1.36028016       1.35228177      -1.35853523       0.00000000
Si      -1.35884664      -1.36034532       1.35725337       0.00000000
Si       1.35477414      -1.36391283      -1.36404379       0.00000000
Si      -2.71324611       2.71155195      -0.00038110       0.00000000
Si       0.00759114       2.72057661      -2.70512833       0.00000000
Si      -0.00079821       2.71169288       2.71422957       0.00000000
Si       2.71418559      -0.00355122       2.71436815       0.00000000
Si      -2.70650205       0.00910611      -2.72308831       0.00000000
Si       2.71541342       2.71442548      -0.00065826       0.00000000
