10
Lattice="16.28999089631971 0.0 0.0 0.0 16.28999089631971 0.0 0.0 0.0 34.64500226677339" Properties=species:S:1:pos:R:3:initial_magmoms:R:1 pbc="T T T"
Si      -0.26673246      -1.03946490      -2.09415298       0.00000000
Si      -2.03644548      -0.13219335       1.20699791       0.00000000
Si       1.39255065      -1.85163543       0.72997061       0.00000000
Si       0.14286330       2.44469636      -0.50107095       0.00000000
Si       3.26679597      -0.50643981       0.39360209       0.00000000
Si      -0.91409706      -0.20528658       3.32190325       0.00000000
Si       0.40032675      -2.13047136       2.89386401       0.00000000
Si       2.67087582       0.79626402       2.37612881       0.00000000
Si       1.60396227       2.28116105      -2.52777007       0.00000000
Si       0.57976110       1.65124629       3.33763209       0.00000000
