10
Lattice="16.28999089631971 0.0 0.0 0.0 16.28999089631971 0.0 0.0 0.0 34.64500226677339" Properties=species:S:1:pos:R:3:initial_magmoms:R:1 pbc="T T T"
Si       1.34426057       1.35273789      -1.38975040       0.00000000
Si      -1.37096243      -1.35773892      -1.39272987       0.00000000
Si      -1.23465706       1.52775765       1.35978245       0.00000000
Si       1.54420403      -1.24559856       1.59037972       0.00000000
Si      -2.50036580       0.14235831       2.83288877       0.00000000
Si       2.71149656      -2.69145009      -0.00983919       0.00000000
Si      -2.71145162      -2.70710478      -0.02383577       0.00000000
Si       2.70390542       2.73564486      -0.01642174       0.00000000
Si      -2.72642213       2.72043000      -0.02889395       0.00000000
Si       2.70476879       0.00136836      -2.75199265       0.00000000
