10
Lattice="16.28999089631971 0.0 0.0 0.0 16.28999089631971 0.0 0.0 0.0 34.64500226677339" Properties=species:S:1:pos:R:3:initial_magmoms:R:1 pbc="T T T"
Si       0.87703731       1.91332566       1.11789091       0.00000000
Si      -1.56473595       0.79208496      -1.62336178       0.00000000
Si       1.85100012      -1.28254428      -0.96815513       0.00000000
Si      -1.64201571      -1.25276616       1.40003997       0.00000000
Si       3.47268821      -0.57511845       0.69851293       0.00000000
Si      -0.45652725       3.63656331       0.05272972       0.00000000
Si      -1.24955703      -0.72283617      -3.37387079       0.00000000
Si      -3.23035587      -1.95978474      -0.19009723       0.00000000
Si      -0.53831934       1.76182866       3.33732029       0.00000000
Si      -0.87586443       3.01226535      -2.18987717       0.00000000
