10
Lattice="16.28999089631971 0.0 0.0 0.0 16.28999089631971 0.0 0.0 0.0 34.64500226677339" Properties=species:S:1:pos:R:3:initial_magmoms:R:1 pbc="T T T"
Si       1.35658226       1.35469176       1.35805020       0.00000000
Si      -1.36243118       1.35584998      -1.35479357       0.00000000
Si      -1.35883109      -1.36012375       1.35829272       0.00000000
Si       1.35831715      -1.36282789      -1.36047535       0.00000000
Si      -2.70782228       0.00615113      -2.70447007       0.00000000
Si      -0.00120859       2.71212280       2.71502641       0.00000000
Si       2.71437657       2.71300246       0.00017323       0.00000000
Si      -2.71520165       2.71241602       0.00155903       0.00000000
Si       2.71388787      -0.00267060       2.71488783       0.00000000
Si      -2.71541342      -2.71442548       0.00065826       0.00000000
