10
Lattice="16.28999089631971 0.0 0.0 0.0 16.28999089631971 0.0 0.0 0.0 34.64500226677339" Properties=species:S:1:pos:R:3:initial_magmoms:R:1 pbc="T T T"
Si      -1.68472320       0.55214955      -1.60884551       0.00000000
Si       0.68274648       2.31990777       0.42509442       0.00000000
Si      -0.13936095      -0.34205742       2.47310022       0.00000000
Si       1.24519131      -1.89470619      -1.18995256       0.00000000
Si       2.22694074      -0.29598930       2.32561637       0.00000000
Si       2.73968478      -2.09036538       0.76541246       0.00000000
Si      -0.30131613       1.76770935      -3.05409724       0.00000000
Si      -1.35347094      -2.35727703       2.52482524       0.00000000
Si       2.52286488       2.01797262       1.96797581       0.00000000
Si      -3.47609771       1.61536527      -0.45568597       0.00000000
