10
Lattice="16.28999089631971 0.0 0.0 0.0 16.28999089631971 0.0 0.0 0.0 34.64500226677339" Properties=species:S:1:pos:R:3:initial_magmoms:R:1 pbc="T T T"
Si      -1.53187902       1.45606536       1.11331777       0.00000000
Si      -0.01545921       1.14057693      -2.11202981       0.00000000
Si       1.84011840      -0.30193515       1.54288139       0.00000000
Si      -0.68274648      -2.31990777      -0.42509442       0.00000000
Si      -0.82210743      -2.66196519       2.04800581       0.00000000
Si      -0.86708412       1.02807819       3.30059657       0.00000000
Si       1.54419426      -2.61589707       1.90052195       0.00000000
Si      -2.36746968      -1.76775822      -2.03393993       0.00000000
Si       3.52000836       0.65982645       0.21247792       0.00000000
Si      -0.98406261      -0.55219842      -3.47919165       0.00000000
