10
Lattice="16.28999089631971 0.0 0.0 0.0 16.28999089631971 0.0 0.0 0.0 34.64500226677339" Properties=species:S:1:pos:R:3:initial_magmoms:R:1 pbc="T T T"
Si       2.17451952      -0.81909378       0.18171314       0.00000000
Si      -1.79371538      -0.92623311       1.22321178       0.00000000
Si      -0.49063525       0.22921659      -2.31123868       0.00000000
Si       0.28373922       2.31316371       0.70513013       0.00000000
Si      -3.39000506      -0.64423692      -0.59700301       0.00000000
Si       3.41743023       1.06969914      -0.50114024       0.00000000
Si       2.60547147      -0.98352504       2.47680724       0.00000000
Si      -1.53141606       0.04483008       3.45802354       0.00000000
Si       1.47672108       0.69357933      -3.47763263       0.00000000
Si       0.85841784       3.69846531      -1.12921983       0.00000000
