10
Lattice="16.28999089631971 0.0 0.0 0.0 16.28999089631971 0.0 0.0 0.0 34.64500226677339" Properties=species:S:1:pos:R:3:initial_magmoms:R:1 pbc="T T T"
Si      -1.73315372      -0.05696613      -1.52157470       0.00000000
Si       1.83076338      -0.90937296      -1.10680451       0.00000000
Si      -0.63180311      -0.89469567       2.06172524       0.00000000
Si       0.47178642       2.22378048       0.66016089       0.00000000
Si       3.46408023       0.00500103       0.38871714       0.00000000
Si       0.01560810      -3.17770659       1.64608891       0.00000000
Si       2.81187750       2.33230446       0.32129793       0.00000000
Si      -1.35889097       3.39680709      -0.44841051       0.00000000
Si      -1.83478703       2.12384133      -2.45896506       0.00000000
Si      -3.73236026      -0.33498756      -0.34399042       0.00000000
