10
Lattice="16.28999089631971 0.0 0.0 0.0 16.28999089631971 0.0 0.0 0.0 34.64500226677339" Properties=species:S:1:pos:R:3:initial_magmoms:R:1 pbc="T T T"
Si      -1.62168809      -0.70742583      -1.66666806       0.00000000
Si       2.02346724      -0.79500087      -1.22435506       0.00000000
Si      -0.22285209       2.59771743      -0.63081655       0.00000000
Si      -0.39440859      -1.32216156       2.44036068       0.00000000
Si      -3.47268821       0.57511845      -0.69851293       0.00000000
Si      -2.59565090       2.48844411       0.41937799       0.00000000
Si      -0.97427688      -2.99043675      -2.08230438       0.00000000
Si       1.45662411      -3.09195603      -1.61944689       0.00000000
Si       2.12625714       1.37818287       2.85204405       0.00000000
Si      -0.98988498       0.18726984      -3.72839329       0.00000000
