10
Lattice="16.28999089631971 0.0 0.0 0.0 16.28999089631971 0.0 0.0 0.0 34.64500226677339" Properties=species:S:1:pos:R:3:initial_magmoms:R:1 pbc="T T T"
Si      -1.87424532      -1.34519562       0.33636851       0.00000000
Si       1.70397440      -1.41703452       0.88476456       0.00000000
Si      -0.59592015       1.30270383       1.98252672       0.00000000
Si       0.28287878       0.34735167      -2.41160531       0.00000000
Si      -3.26679597       0.50643981      -0.39360209       0.00000000
Si      -0.14983467      -0.51989535       3.54900137       0.00000000
Si       2.99591801       0.09049095       2.18024586       0.00000000
Si       0.99112237       3.08987810       1.93745354       0.00000000
Si       0.72406248      -2.54490525       2.72112393       0.00000000
Si      -1.40752053      -3.40744446      -0.93392585       0.00000000
