10
Lattice="16.28999089631971 0.0 0.0 0.0 16.28999089631971 0.0 0.0 0.0 34.395419527814205" Properties=species:S:1:pos:R:3:initial_magmoms:R:1 pbc="T T T"
Si      -0.26271372       2.26373985       0.09785502       0.00000000
Si       2.28030678      -0.45804222      -0.19374951       0.00000000
Si      -1.24030594      -0.25428690      -2.09478541       0.00000000
Si       0.27466569       0.62147979       2.48455126       0.00000000
Si      -0.27999741      -3.45304017       0.23134372       0.00000000
Si       2.17443807      -2.88956907       0.02070605       0.00000000
Si      -0.57647541       1.73255553      -3.18666861       0.00000000
Si       0.71438166       3.15096885      -1.76011779       0.00000000
Si      -1.76503683      -2.53998567       2.22934036       0.00000000
Si      -1.43944793       2.37555441       2.63172095       0.00000000
