10
Lattice="16.28999089631971 0.0 0.0 0.0 16.28999089631971 0.0 0.0 0.0 34.395419527814205" Properties=species:S:1:pos:R:3:initial_magmoms:R:1 pbc="T T T"
Si       1.35625653       1.35858600      -1.35693445       0.00000000
Si       1.35765747      -1.35728280       1.35755357       0.00000000
Si      -1.35755973       1.35759231       1.35775994       0.00000000
Si      -1.35798327      -1.35892809      -1.35665929       0.00000000
Si       0.00097740      -2.71482624      -2.71400649       0.00000000
Si      -0.00039096      -2.71482624       2.71407528       0.00000000
Si      -2.71412577       0.00011403       2.71517593       0.00000000
Si       0.00074934       2.71541268       2.71407528       0.00000000
Si       2.71461447      -2.71490769       0.00000000       0.00000000
Si       2.71603170       0.00060273       2.71349056       0.00000000
