10
Lattice="16.28999089631971 0.0 0.0 0.0 16.28999089631971 0.0 0.0 0.0 34.395419527814205" Properties=species:S:1:pos:R:3:initial_magmoms:R:1 pbc="T T T"
Si       1.46885301       1.75570362       0.40985605       0.00000000
Si      -0.33541110       0.20080683      -2.31581050       0.00000000
Si       0.86366322      -1.87001055       1.13491190       0.00000000
Si      -1.87144407       0.97855659       1.03760720       0.00000000
Si      -1.75159854      -1.60976151      -2.45256676       0.00000000
Si       1.60111152      -0.64164681       3.01331560       0.00000000
Si      -1.88136468       2.91931461      -0.28076997       0.00000000
Si       3.36000798       1.13316498      -0.79855890       0.00000000
Si      -1.38349341       2.30516532      -2.50839056       0.00000000
Si       0.23850189       3.73358655       0.11763240       0.00000000
