10
Lattice="16.28999089631971 0.0 0.0 0.0 16.28999089631971 0.0 0.0 0.0 34.395419527814205" Properties=species:S:1:pos:R:3:initial_magmoms:R:1 pbc="T T T"
Si      -0.00992061       1.94075802      -1.31837717       0.00000000
Si       1.87144407      -0.97855659      -1.03760720       0.00000000
Si      -2.03980122      -1.18117161      -0.32125340       0.00000000
Si       0.57363606       0.53392104       2.25503376       0.00000000
Si       3.34029708       0.77714703      -0.62775115       0.00000000
Si       2.10994596       2.75502996      -0.91997480       0.00000000
Si       1.37378457      -1.46899962       3.12571989       0.00000000
Si      -1.55768238      -2.80241757      -1.91850878       0.00000000
Si      -1.12169682       1.91097990       3.04499380       0.00000000
Si      -1.58312736       3.40661367      -0.29456254       0.00000000
