10
Lattice="16.28999089631971 0.0 0.0 0.0 16.28999089631971 0.0 0.0 0.0 34.395419527814205" Properties=species:S:1:pos:R:3:initial_magmoms:R:1 pbc="T T T"
Si       1.35166275       1.35103137       1.33543730       0.00000000
Si      -1.35482301       1.35691043      -1.35824148       0.00000000
Si       1.35910728      -1.35834165      -1.35655610       0.00000000
Si      -1.35060390      -1.36106208       1.38833749       0.00000000
Si       0.02599884       2.69559494       2.69488263       0.00000000
Si      -2.71381626       2.71281347      -0.00030956       0.00000000
Si      -2.71282257      -0.00084372      -2.71493517       0.00000000
Si       0.00213399       2.71366055      -2.71486638       0.00000000
Si      -2.71534752      -2.71443528       0.00244208       0.00000000
Si       0.00197109      -2.71567332      -2.71469440       0.00000000
