10
Lattice="16.28999089631971 0.0 0.0 0.0 16.28999089631971 0.0 0.0 0.0 34.395419527814205" Properties=species:S:1:pos:R:3:initial_magmoms:R:1 pbc="T T T"
Si      -1.35182565      -1.35755321       1.37996220       0.00000000
Si       1.36619343       1.35363384       1.37741694       0.00000000
Si       1.33864704      -1.46612118      -1.34327603       0.00000000
Si      -1.38201102       1.36862064      -1.53065894       0.00000000
Si       2.41644231       0.24272100      -2.55220484       0.00000000
Si      -2.71528236       2.69827560      -0.00038867       0.00000000
Si      -2.69752626      -2.72816215      -0.00975799       0.00000000
Si       2.71375110       2.71989243      -0.00413089       0.00000000
Si       0.00718389       2.70953199       2.74098971       0.00000000
Si      -2.70852201      -0.00438201       2.74281267       0.00000000
