10
Lattice="16.28999089631971 0.0 0.0 0.0 16.28999089631971 0.0 0.0 0.0 34.395419527814205" Properties=species:S:1:pos:R:3:initial_magmoms:R:1 pbc="T T T"
Si       0.71992026      -0.73718277      -2.13595675       0.00000000
Si      -2.24241624       0.92505697      -0.09506899       0.00000000
Si       1.61793909       1.91027617      -0.09813019       0.00000000
Si      -0.18909432      -1.80986202       1.76276624       0.00000000
Si       1.61398062       1.56600331       2.19849113       0.00000000
Si       0.53618535      -0.14283886       3.40741995       0.00000000
Si       2.68915320      -1.91584476      -1.53059702       0.00000000
Si      -0.69885729      -2.51194473      -2.75507464       0.00000000
Si      -3.22571322       0.20763560      -2.15514940       0.00000000
Si      -0.31600971      -3.80393721      -0.81272982       0.00000000
