10
Lattice="16.28999089631971 0.0 0.0 0.0 16.28999089631971 0.0 0.0 0.0 34.395419527814205" Properties=species:S:1:pos:R:3:initial_magmoms:R:1 pbc="T T T"
Si      -1.34755767      -1.35710361       1.33588445       0.00000000
Si      -1.35265644       1.35754344      -1.35834467       0.00000000
Si       1.36174626      -1.35671265      -1.35710643       0.00000000
Si       1.37912769       1.36860435       1.38696167       0.00000000
Si      -2.56880268       0.00501732       2.74028461       0.00000000
Si       0.00540828      -2.52534096       2.83683260       0.00000000
Si      -2.71046052       2.71334385       0.00264845       0.00000000
Si      -2.71103067      -0.00034209      -2.71428165       0.00000000
Si      -2.71060713      -2.71542897       0.00113505       0.00000000
Si       2.71524978       2.71357191       0.00106626       0.00000000
