10
Lattice="16.28999089631971 0.0 0.0 0.0 16.28999089631971 0.0 0.0 0.0 34.395419527814205" Properties=species:S:1:pos:R:3:initial_magmoms:R:1 pbc="T T T"
Si       2.00958327      -1.20267441      -0.29187969       0.00000000
Si       1.24023915       2.05900713       0.10012512       0.00000000
Si      -1.42262199      -0.24280245      -1.94509646       0.00000000
Si      -1.12456386      -0.85271634       1.96934524       0.00000000
Si       2.60236008      -1.73320713       1.95022138       0.00000000
Si       1.43228196      -2.63914616      -2.18693079       0.00000000
Si      -0.21747150       3.50383239       1.30179857       0.00000000
Si      -0.24364953      -1.60406001      -3.48074961       0.00000000
Si       3.92326731       0.20701332      -0.56098961       0.00000000
Si       1.84153563       2.77889481      -2.15556215       0.00000000
