10
Lattice="16.28999089631971 0.0 0.0 0.0 16.28999089631971 0.0 0.0 0.0 34.395419527814205" Properties=species:S:1:pos:R:3:initial_magmoms:R:1 pbc="T T T"
Si      -0.15718221       2.00609721      -1.25842592       0.00000000
Si       0.53315541      -1.33887510      -1.91568836       0.00000000
Si       1.06987833      -0.05193252       2.15728192       0.00000000
Si      -2.14733151      -1.11741255       0.51957750       0.00000000
Si      -0.76036833      -2.90263365       1.50944383       0.00000000
Si       0.18907803      -3.34204011      -0.68484758       0.00000000
Si      -1.92353949       2.86295121       0.05912576       0.00000000
Si      -3.33972693       1.05238287      -0.07763051       0.00000000
Si      -0.72446517       0.79213383       3.50984815       0.00000000
Si      -0.94040541       1.44946791      -3.44325858       0.00000000
