10
Lattice="16.28999089631971 0.0 0.0 0.0 16.28999089631971 0.0 0.0 0.0 34.395419527814205" Properties=species:S:1:pos:R:3:initial_magmoms:R:1 pbc="T T T"
Si       1.05656940       1.60350615       1.39911500       0.00000000
Si      -1.66969242      -1.12296744       1.41528085       0.00000000
Si       1.76990850      -1.81268604      -0.05365688       0.00000000
Si      -0.79979013       1.45134126      -2.00831527       0.00000000
Si       1.47789396       0.67955364      -2.87848548       0.00000000
Si       2.28548700      -1.49444460      -2.50374717       0.00000000
Si      -0.22734324      -2.43147798       2.84211716       0.00000000
Si       2.50098741       0.30633345       2.83838869       0.00000000
Si       0.69799392      -3.16273608      -2.14359253       0.00000000
Si       1.89377766       3.43106496       0.15311108       0.00000000
