10
Lattice="16.28999089631971 0.0 0.0 0.0 16.28999089631971 0.0 0.0 0.0 34.395419527814205" Properties=species:S:1:pos:R:3:initial_magmoms:R:1 pbc="T T T"
Si      -1.69819992       1.27177659       0.95072432       0.00000000
Si      -0.76800834       0.08447994      -2.21565098       0.00000000
Si       1.81903914       1.53205821      -0.36724010       0.00000000
Si      -0.63574983      -2.31287049       0.38780857       0.00000000
Si      -3.53466936      -0.15874605       0.66713393       0.00000000
Si       1.12314663      -0.53805870      -3.42406593       0.00000000
Si       1.32936174      -3.31180587       1.16542065       0.00000000
Si       2.89450494      -2.40753168      -0.38278684       0.00000000
Si      -2.73452085      -2.16166671       1.53782007       0.00000000
Si      -1.99835946       2.06236287      -2.50787463       0.00000000
