10
Lattice="16.28999089631971 0.0 0.0 0.0 16.28999089631971 0.0 0.0 0.0 34.395419527814205" Properties=species:S:1:pos:R:3:initial_magmoms:R:1 pbc="T T T"
Si      -1.46885301      -1.75570362      -0.40985605       0.00000000
Si       1.89115497      -0.62253864      -1.20841495       0.00000000
Si       0.76800834      -0.08447994       2.21565098       0.00000000
Si      -1.23035112       1.97788293      -0.29222365       0.00000000
Si       3.25873305       1.12759380      -0.44610884       0.00000000
Si      -3.34029708      -0.77714703       0.62775115       0.00000000
Si       2.58704748       1.44757827       1.84841088       0.00000000
Si      -0.93019158       1.18729665       3.16637530       0.00000000
Si       0.13225851      -2.39735043       2.60345955       0.00000000
Si      -3.35021769       1.16361099      -0.69062601       0.00000000
