10
Lattice="16.28999089631971 0.0 0.0 0.0 16.28999089631971 0.0 0.0 0.0 34.395419527814205" Properties=species:S:1:pos:R:3:initial_magmoms:R:1 pbc="T T T"
Si       0.02894733       1.95885621       1.26159030       0.00000000
Si      -1.05410961      -1.52402724       1.42878653       0.00000000
Si      -1.17180486       0.33954876      -2.09365036       0.00000000
Si       2.38470939      -0.57645423      -0.03914201       0.00000000
Si      -1.05228513      -1.95883992      -2.72336205       0.00000000
Si       2.02461894       2.94317036       0.61024387       0.00000000
Si       0.27608292       1.12104522       3.47827314       0.00000000
Si       2.70938538      -0.70066548      -2.38212490       0.00000000
Si      -1.36309833      -0.54073026       3.52439742       0.00000000
Si       3.56866659       1.22000697       0.88434113       0.00000000
