10
Lattice="16.28999089631971 0.0 0.0 0.0 16.28999089631971 0.0 0.0 0.0 34.395419527814205" Properties=species:S:1:pos:R:3:initial_magmoms:R:1 pbc="T T T"
Si      -1.72691919      -1.14034887       1.23500404       0.00000000
Si       1.10464119       1.73628594       1.29818158       0.00000000
Si      -0.75010563       1.01828790      -2.22149820       0.00000000
Si       1.75607829      -1.94145849       0.13938730       0.00000000
Si      -0.54459099      -1.40919903      -2.62069166       0.00000000
Si       2.35649511       0.35546409       2.83792435       0.00000000
Si      -0.37033686      -2.37184029       2.82879924       0.00000000
Si       1.70784360      -1.33630128      -3.26178825       0.00000000
Si       2.96360712       2.65456953      -0.15914770       0.00000000
Si       2.83669173       0.66049434      -2.73464375       0.00000000
