10
Lattice="16.28999089631971 0.0 0.0 0.0 16.28999089631971 0.0 0.0 0.0 34.395419527814205" Properties=species:S:1:pos:R:3:initial_magmoms:R:1 pbc="T T T"
Si      -1.40294367       1.26232701      -1.36860139       0.00000000
Si       1.34110683       1.36261802       1.35828276       0.00000000
Si      -1.37697741      -1.34979308       1.35907385       0.00000000
Si       1.26100890      -1.47043682      -1.38991968       0.00000000
Si      -2.12822334      -0.40469615      -3.01325510       0.00000000
Si      -0.43383528      -2.54176496      -2.72952713       0.00000000
Si       2.68882157      -2.71807163       0.00184016       0.00000000
Si       2.69596008       0.00910294       2.71790005       0.00000000
Si      -0.01961316      -2.70583784       2.71648984       0.00000000
Si       2.70327663       2.72103623      -0.00968576       0.00000000
