10
Lattice="16.28999089631971 0.0 0.0 0.0 16.28999089631971 0.0 0.0 0.0 34.395419527814205" Properties=species:S:1:pos:R:3:initial_magmoms:R:1 pbc="T T T"
Si      -1.13863842       0.96941790       1.78581118       0.00000000
Si       0.64630575       1.86924492      -1.27840967       0.00000000
Si      -1.49042097      -1.46313848      -1.14691591       0.00000000
Si       1.85176575      -1.44241108       0.52549351       0.00000000
Si      -0.88816338       1.05441912      -3.07852935       0.00000000
Si      -1.96771797      -1.01962368       2.54464335       0.00000000
Si      -2.04221214      -2.63375091       0.83405499       0.00000000
Si       2.95269282      -1.17019215      -1.50634824       0.00000000
Si       2.87686287       1.21593447      -1.69920347       0.00000000
Si       0.23576517       1.21718880       3.69909186       0.00000000
