10
Lattice="16.28999089631971 0.0 0.0 0.0 16.28999089631971 0.0 0.0 0.0 34.395419527814205" Properties=species:S:1:pos:R:3:initial_magmoms:R:1 pbc="T T T"
Si       1.52884908      -0.11692962      -1.73669449       0.00000000
Si      -1.54838079       1.74257388      -0.24517069       0.00000000
Si      -1.91853846      -1.36414578      -0.15457310       0.00000000
Si       1.57391138      -0.36712773       1.73820789       0.00000000
Si       2.05461927      -2.58624017       0.84795075       0.00000000
Si      -2.39394582      -1.51302172       2.12130429       0.00000000
Si       0.06761979      -0.91702600      -3.41876903       0.00000000
Si       3.07841482      -1.74433157      -1.04304168       0.00000000
Si      -0.34811730       3.64966047      -0.59359648       0.00000000
Si       0.51093585      -0.33138747       3.83185825       0.00000000
