10
Lattice="16.28999089631971 0.0 0.0 0.0 16.28999089631971 0.0 0.0 0.0 34.395419527814205" Properties=species:S:1:pos:R:3:initial_magmoms:R:1 pbc="T T T"
Si       0.18230139      -2.37936627       0.03491137       0.00000000
Si      -2.34686772       0.43802181      -0.14009262       0.00000000
Si       0.74222259       0.46190295      -2.32822725       0.00000000
Si       0.81879569       2.03672241       1.66047420       0.00000000
Si      -2.35082619       0.09374895       2.15652870       0.00000000
Si      -2.14052229       2.45685780      -1.48873778       0.00000000
Si       0.04517217       2.69232975      -2.38700905       0.00000000
Si      -0.67808754       1.17817425       3.34326214       0.00000000
Si      -0.19885203       3.85480044       0.30285184       0.00000000
Si       3.03068024      -0.09633906      -2.42718293       0.00000000
