10
Lattice="16.28999089631971 0.0 0.0 0.0 16.28999089631971 0.0 0.0 0.0 34.395419527814205" Properties=species:S:1:pos:R:3:initial_magmoms:R:1 pbc="T T T"
Si      -1.88621910       0.21861180      -1.37519843       0.00000000
Si       0.76149234       2.12786496       0.69444391       0.00000000
Si       1.52783814      -1.45847628      -1.08166776       0.00000000
Si      -0.96534540      -0.66419217       2.11129522       0.00000000
Si       2.37280370      -2.56849317       0.80007230       0.00000000
Si      -1.75506831      -1.91922264      -2.51778051       0.00000000
Si      -3.55980483       0.76260006       0.28895608       0.00000000
Si       0.86152923       1.80718002       3.07199422       0.00000000
Si      -2.62945035       0.93068028       2.53831459       0.00000000
Si       0.63348552      -0.46227762       3.75532840       0.00000000
