10
Lattice="16.28999089631971 0.0 0.0 0.0 16.28999089631971 0.0 0.0 0.0 34.395419527814205" Properties=species:S:1:pos:R:3:initial_magmoms:R:1 pbc="T T T"
Si      -1.38400817      -1.23864273       1.52437145       0.00000000
Si      -1.34509462       1.33286409      -1.52677913       0.00000000
Si       1.35602847      -1.36471104      -1.52671034       0.00000000
Si       1.72670742       1.28583486       1.32876459       0.00000000
Si      -2.70354446       2.65051332      -0.10672905       0.00000000
Si      -2.67096297      -2.73442311       0.05413842       0.00000000
Si       2.74809042      -2.74882347      -0.21153195       0.00000000
Si       2.77772193       2.72316672      -0.16310317       0.00000000
Si      -0.02476080      -2.63906145       2.92416262       0.00000000
Si       0.00972513       2.69834076      -2.90376613       0.00000000
