10
Lattice="16.28999089631971 0.0 0.0 0.0 16.28999089631971 0.0 0.0 0.0 34.395419527814205" Properties=species:S:1:pos:R:3:initial_magmoms:R:1 pbc="T T T"
Si      -1.16206344      -1.42239393      -1.53720580       0.00000000
Si       1.30684896      -1.34796492       1.53853549       0.00000000
Si       1.32583496       1.49784921      -1.38751685       0.00000000
Si      -1.38969990       1.34024346       1.54180994       0.00000000
Si      -0.65728521       2.46749517      -2.46598584       0.00000000
Si      -1.56186891       0.35052822      -3.31135693       0.00000000
Si      -2.80595250      -2.65315230      -0.01094463       0.00000000
Si       2.67663989       2.80028358       0.13199594       0.00000000
Si      -2.86199010       2.60952768       0.17513470       0.00000000
Si       2.56990293      -2.89805616       0.18306972       0.00000000
