10
Lattice="16.28999089631971 0.0 0.0 0.0 16.28999089631971 0.0 0.0 0.0 34.395419527814205" Properties=species:S:1:pos:R:3:initial_magmoms:R:1 pbc="T T T"
Si       1.96098205       0.64650123      -1.07258736       0.00000000
Si       0.84496556      -1.11001689       1.88174006       0.00000000
Si      -1.52783814       1.45847628       1.08166776       0.00000000
Si      -1.05234933      -1.11405681      -1.85690655       0.00000000
Si      -3.28290645      -0.46074636      -1.43611275       0.00000000
Si      -0.61621716      -2.97230598       2.04986496       0.00000000
Si      -3.41405724       1.67708808      -0.29353067       0.00000000
Si       3.00140806      -1.44806697      -1.86523025       0.00000000
Si       3.57220966       1.30160358       0.49636058       0.00000000
Si       1.51574378       2.50589070      -2.52734244       0.00000000
