10
Lattice="16.28999089631971 0.0 0.0 0.0 16.28999089631971 0.0 0.0 0.0 34.395419527814205" Properties=species:S:1:pos:R:3:initial_magmoms:R:1 pbc="T T T"
Si      -1.36757808      -1.75013244      -0.76230611       0.00000000
Si      -0.67168557       0.31998447       2.29451972       0.00000000
Si      -1.05026517       1.79786214      -1.31404334       0.00000000
Si       2.40453432      -0.50995845      -0.20472165       0.00000000
Si      -3.25873305      -1.12759380       0.44610884       0.00000000
Si       2.38731579      -0.56852100      -2.57374189       0.00000000
Si       0.13369203       3.59432334      -0.39056021       0.00000000
Si      -0.52657425      -3.78768564       0.02961447       0.00000000
Si      -2.49072471      -1.21207374       2.66175982       0.00000000
Si       1.16598933       0.06687045       3.71298761       0.00000000
