10
Lattice="16.28999089631971 0.0 0.0 0.0 16.28999089631971 0.0 0.0 0.0 34.395419527814205" Properties=species:S:1:pos:R:3:initial_magmoms:R:1 pbc="T T T"
Si      -0.60694911       2.22011523       0.08089807       0.00000000
Si       2.12182137      -0.58986090      -0.81943693       0.00000000
Si      -0.15257214      -0.69597396       2.27625574       0.00000000
Si      -1.36915821      -1.46636064      -1.35311656       0.00000000
Si       1.89377766      -2.85931854      -0.13610275       0.00000000
Si       0.29494674      -3.06123309      -1.78013593       0.00000000
Si       1.56115215      -2.38469310       2.21145473       0.00000000
Si      -2.36060019      -1.54629567       2.35054989       0.00000000
Si       1.33229394       3.43666872      -0.47912846       0.00000000
Si      -2.44462401       2.47322925      -1.33756982       0.00000000
