10
Lattice="16.28999089631971 0.0 0.0 0.0 16.28999089631971 0.0 0.0 0.0 34.395419527814205" Properties=species:S:1:pos:R:3:initial_magmoms:R:1 pbc="T T T"
Si      -1.96098205      -0.64650123       1.07258736       0.00000000
Si       1.61122761       0.65510235       1.56894794       0.00000000
Si      -0.44523828       1.85938947      -1.45475508       0.00000000
Si       1.04042601      -2.09456820      -0.79264289       0.00000000
Si       3.28875552       0.86920182      -0.00271724       0.00000000
Si      -3.01333139      -1.76055804      -0.78431919       0.00000000
Si      -1.11601650      -1.75651812       2.95432742       0.00000000
Si      -2.66762501       1.58524506      -2.09705551       0.00000000
Si      -0.17762616       3.86301060      -0.29703901       0.00000000
Si       2.79386532      -1.19371491       2.41524771       0.00000000
