10
Lattice="16.28999089631971 0.0 0.0 0.0 16.28999089631971 0.0 0.0 0.0 34.395419527814205" Properties=species:S:1:pos:R:3:initial_magmoms:R:1 pbc="T T T"
Si       1.35736425      -1.35604476       1.35741599       0.00000000
Si      -1.35643572       1.35847741       1.35610896       0.00000000
Si       1.37697741       1.34979308      -1.35907385       0.00000000
Si      -1.35835794      -1.35400851      -1.37525690       0.00000000
Si      -0.02596626       2.61212009      -2.72767524       0.00000000
Si       2.63798631      -0.12064374      -2.74899353       0.00000000
Si      -2.71381626      -2.71067229      -0.00323317       0.00000000
Si       0.00055386      -2.71326240       2.71455682       0.00000000
Si      -2.71422351       0.00133578       2.71435044       0.00000000
Si       2.71733490      -2.71207323      -0.00175417       0.00000000
