10
Lattice="16.28999089631971 0.0 0.0 0.0 16.28999089631971 0.0 0.0 0.0 34.395419527814205" Properties=species:S:1:pos:R:3:initial_magmoms:R:1 pbc="T T T"
Si       1.35728046       1.35777201      -1.35576501       0.00000000
Si      -1.35705474       1.35719388       1.35707204       0.00000000
Si       1.35719423      -1.35672894       1.35758797       0.00000000
Si      -1.35829278      -1.35716877      -1.35717522       0.00000000
Si       0.00242721       2.71128709      -2.71538231       0.00000000
Si      -2.71383255       0.00035838       2.71438484       0.00000000
Si      -0.00143352      -2.71487511       2.71390330       0.00000000
Si       2.71441803      -2.71446786      -0.00027516       0.00000000
Si      -2.71510317      -2.71438641      -0.00003440       0.00000000
Si       0.00167787      -2.71319724      -2.71634538       0.00000000
