10
Lattice="16.28999089631971 0.0 0.0 0.0 16.28999089631971 0.0 0.0 0.0 34.395419527814205" Properties=species:S:1:pos:R:3:initial_magmoms:R:1 pbc="T T T"
Si      -1.66465881      -1.00054809      -1.26468589       0.00000000
Si       0.97223607       1.84898016      -1.31707014       0.00000000
Si      -1.52472771       0.52784487       1.89178353       0.00000000
Si       2.05265403      -1.94518890       0.21001855       0.00000000
Si      -0.36504261       2.50676126       2.43278938       0.00000000
Si      -0.43178274      -2.16867141      -2.83786446       0.00000000
Si       2.27247129       0.54877752      -2.81199909       0.00000000
Si      -2.39151861      -2.88803781       0.23811962       0.00000000
Si      -1.08442530      -1.35700587       3.40944787       0.00000000
Si       0.93253734      -3.44383632      -1.41901822       0.00000000
