10
Lattice="16.28999089631971 0.0 0.0 0.0 16.28999089631971 0.0 0.0 0.0 34.395419527814205" Properties=species:S:1:pos:R:3:initial_magmoms:R:1 pbc="T T T"
Si       1.54482957       1.23483087      -1.45716276       0.00000000
Si      -1.12011669      -1.49864742      -1.62903677       0.00000000
Si       1.22859180      -1.88419914       1.07038605       0.00000000
Si      -2.05265403       1.94518890      -0.21001855       0.00000000
Si      -0.82497447       0.21976839       3.06501194       0.00000000
Si      -2.66001039      -2.53496835      -0.22828253       0.00000000
Si      -0.76975137      -3.49760961       1.21027230       0.00000000
Si       0.21981726       2.49396642      -3.02201764       0.00000000
Si      -2.48443677      -0.22348251      -3.04788301       0.00000000
Si       2.59873297       3.05984844      -0.24809430       0.00000000
