10
Lattice="16.28999089631971 0.0 0.0 0.0 16.28999089631971 0.0 0.0 0.0 34.395419527814205" Properties=species:S:1:pos:R:3:initial_magmoms:R:1 pbc="T T T"
Si      -1.35807273       1.35524655      -1.36298805       0.00000000
Si       1.35831802      -1.35930276      -1.36188740       0.00000000
Si       1.33358980       1.38337938       1.36663397       0.00000000
Si      -1.35471699      -1.36231641       1.37746853       0.00000000
Si       2.72502296       0.09076788       2.66881088       0.00000000
Si       2.71319642       2.71448415      -0.00240768       0.00000000
Si      -2.71449216       2.71352304      -0.00505613       0.00000000
Si       0.00055502       2.71339272      -2.71930339       0.00000000
Si      -2.71472022      -0.00184077      -2.71968174       0.00000000
Si       2.71617749      -2.71831230      -0.00220131       0.00000000
