10
Lattice="16.28999089631971 0.0 0.0 0.0 16.28999089631971 0.0 0.0 0.0 34.395419527814205" Properties=species:S:1:pos:R:3:initial_magmoms:R:1 pbc="T T T"
Si      -0.12738780      -1.96933068      -1.27325035       0.00000000
Si       0.38074617      -0.58327974       2.25579045       0.00000000
Si      -2.24501354       0.81463032       0.00409306       0.00000000
Si       1.98858546       1.33191927      -0.14452963       0.00000000
Si      -2.32452503      -2.59237431      -0.48872479       0.00000000
Si       1.53191160      -3.25586601      -0.17122049       0.00000000
Si      -2.03510889       2.61208521      -1.44863269       0.00000000
Si      -1.00493499       0.89287119       3.42330923       0.00000000
Si       3.56179221      -0.13393638      -1.16834426       0.00000000
Si       1.69142328       3.14970408      -1.56657465       0.00000000
