10
Lattice="16.28999089631971 0.0 0.0 0.0 16.28999089631971 0.0 0.0 0.0 34.395419527814205" Properties=species:S:1:pos:R:3:initial_magmoms:R:1 pbc="T T T"
Si      -0.89545967       1.74395853       1.21550041       0.00000000
Si      -0.30786634       0.87280191      -2.15855455       0.00000000
Si       2.31029993      -0.42572286      -0.15801265       0.00000000
Si      -0.88703611      -1.84037904       1.17532654       0.00000000
Si      -3.25539753       0.80940123       0.85396995       0.00000000
Si      -0.09379130      -3.50151921      -0.34230341       0.00000000
Si       1.07781482      -0.60334902      -3.32607332       0.00000000
Si      -0.23162914       3.73080096       0.12361721       0.00000000
Si       0.49618037      -2.71674846      -2.52847749       0.00000000
Si       0.47948312       3.15807714      -2.04690696       0.00000000
