10
Lattice="16.28999089631971 0.0 0.0 0.0 16.28999089631971 0.0 0.0 0.0 34.395419527814205" Properties=species:S:1:pos:R:3:initial_magmoms:R:1 pbc="T T T"
Si       1.35673708       1.35695700      -1.35707204       0.00000000
Si      -1.35722380       1.35773892       1.35786313       0.00000000
Si       1.35820318      -1.35788553       1.35741599       0.00000000
Si      -1.35948245      -1.35927018      -1.35755357       0.00000000
Si      -2.71274016       0.00127062      -2.71607022       0.00000000
Si      -2.71441803       2.71446786       0.00027516       0.00000000
Si      -2.71482528      -2.71508688       0.00020637       0.00000000
Si      -2.71585155      -0.00040725       2.71417847       0.00000000
Si       2.71511131      -0.00026064       2.71507275       0.00000000
Si       0.00053920      -2.71495656       2.71527912       0.00000000
