10
Lattice="16.28999089631971 0.0 0.0 0.0 16.28999089631971 0.0 0.0 0.0 34.395419527814205" Properties=species:S:1:pos:R:3:initial_magmoms:R:1 pbc="T T T"
Si      -1.28707290      -1.31848002      -1.38046093       0.00000000
Si       0.40593051      -1.59821190       1.62552844       0.00000000
Si       1.50618969       1.37160171      -1.18887834       0.00000000
Si       2.70073539      -1.33799544       1.26957004       0.00000000
Si      -2.56719160      -2.75061537       0.04003629       0.00000000
Si       0.06584418       2.65860945      -2.66578408       0.00000000
Si      -2.67850606      -0.02586852      -2.68263785       0.00000000
Si       0.06151104      -2.76035679      -2.68790035       0.00000000
Si       2.78961363      -0.05626566      -2.65804511       0.00000000
Si       0.08034228      -0.93037077       3.80895089       0.00000000
