10
Lattice="16.28999089631971 0.0 0.0 0.0 16.28999089631971 0.0 0.0 0.0 34.395419527814205" Properties=species:S:1:pos:R:3:initial_magmoms:R:1 pbc="T T T"
Si       0.33852249       1.06266186       2.13506246       0.00000000
Si       0.60944148      -2.26364211      -0.61034706       0.00000000
Si      -2.50134742      -0.11844459       0.06359717       0.00000000
Si       1.97749197       1.50110721      -0.44844773       0.00000000
Si      -1.71181836       2.10623184       2.27498311       0.00000000
Si       0.63568467      -0.75512295       3.55710748       0.00000000
Si       1.73084508       2.92123750       1.50211760       0.00000000
Si      -2.90697168      -2.37091176      -0.65079610       0.00000000
Si      -1.12772412      -3.75624594       0.06717429       0.00000000
Si      -1.78414596       3.49003217       0.30250788       0.00000000
