10
Lattice="16.28999089631971 0.0 0.0 0.0 16.28999089631971 0.0 0.0 0.0 34.395419527814205" Properties=species:S:1:pos:R:3:initial_magmoms:R:1 pbc="T T T"
Si      -0.40562426      -2.25246717      -0.71439326       0.00000000
Si      -0.88666226       0.64348758       2.18940726       0.00000000
Si      -2.09647969       1.13476140      -0.62812950       0.00000000
Si       2.50134742       0.11844459      -0.06359717       0.00000000
Si       0.78952906       2.22467643       2.21138594       0.00000000
Si      -3.38428564      -0.83331495      -1.07723075       0.00000000
Si       0.71720146       3.60847676       0.23891072       0.00000000
Si      -2.71686805       1.98307944       1.53362382       0.00000000
Si       2.83986991       1.18110645       2.07146530       0.00000000
Si      -2.58348553      -2.70707220       0.14047097       0.00000000
