10
Lattice="16.28999089631971 0.0 0.0 0.0 16.28999089631971 0.0 0.0 0.0 34.433804113860816" Properties=species:S:1:pos:R:3:initial_magmoms:R:1 pbc="T T T"
Si      -1.34962300      -1.35044914       1.38991784       0.00000000
Si       1.36527070       1.36278882       1.38609568       0.00000000
Si      -1.32929308       1.36622601      -1.49369105       0.00000000
Si       1.30489181      -1.47541462      -1.45031476       0.00000000
Si      -2.70021061      -2.70750293       0.00463135       0.00000000
Si       2.70871189      -2.72016026       0.02529853       0.00000000
Si      -2.69648020       2.73689919       0.00157363       0.00000000
Si       2.72182534       2.72565909       0.01285415       0.00000000
Si      -2.70851851       0.00723276       2.75067367       0.00000000
Si       0.00724478      -2.70941875       2.75074254       0.00000000
