10
Lattice="16.28999089631971 0.0 0.0 0.0 16.28999089631971 0.0 0.0 0.0 34.433804113860816" Properties=species:S:1:pos:R:3:initial_magmoms:R:1 pbc="T T T"
Si       1.30181535      -1.41647872      -1.35421340       0.00000000
Si       1.36547667       1.34537579       1.36503251       0.00000000
Si      -1.34845362      -1.36550731       1.36561789       0.00000000
Si      -1.07403228       1.45965340      -1.58110475       0.00000000
Si      -1.49288076      -0.41099476      -3.16444224       0.00000000
Si       2.44967391       0.24810745      -2.58462447       0.00000000
Si       0.94703544       2.19590112      -2.73770386       0.00000000
Si      -0.29274759      -2.60472019      -2.71797641       0.00000000
Si      -2.67097356       2.69194791      -0.01776785       0.00000000
Si      -2.70659979      -2.71537816       0.00593639       0.00000000
