10
Lattice="16.28999089631971 0.0 0.0 0.0 16.28999089631971 0.0 0.0 0.0 34.433804113860816" Properties=species:S:1:pos:R:3:initial_magmoms:R:1 pbc="T T T"
Si       1.35645201      -1.35760860       1.35676151       0.00000000
Si      -1.35809730      -1.35716877      -1.35789782       0.00000000
Si      -1.35803214       1.35785295       1.35762235       0.00000000
Si       1.35933534       1.35972630      -1.35927518       0.00000000
Si       2.71386513       0.00148239       2.71410839       0.00000000
Si       0.00171045      -2.71619623       2.71283434       0.00000000
Si       0.00027693       2.71555929       2.71410839       0.00000000
Si       2.71521720      -2.71489140      -0.00117075       0.00000000
Si      -2.71483276      -2.71535892      -0.00048207       0.00000000
Si       2.71505430       2.71518462       0.00000000       0.00000000
