10
Lattice="16.28999089631971 0.0 0.0 0.0 16.28999089631971 0.0 0.0 0.0 34.433804113860816" Properties=species:S:1:pos:R:3:initial_magmoms:R:1 pbc="T T T"
Si      -1.14872193       1.28451537       1.55582344       0.00000000
Si       2.23866954       0.57840903       0.29733606       0.00000000
Si      -0.05866029       0.54055107      -2.27104839       0.00000000
Si      -0.19912896      -2.33440587       0.13222588       0.00000000
Si       1.70530236      -1.07914734      -2.70732493       0.00000000
Si       2.54171241       2.58246999      -0.89149169       0.00000000
Si       3.49438419      -0.74497428      -1.14678405       0.00000000
Si       0.79115643      -2.99011095       2.16354599       0.00000000
Si       0.85563225       2.71666701      -2.60281827       0.00000000
Si       0.82720620      -3.24684135      -1.92185498       0.00000000
