10
Lattice="16.28999089631971 0.0 0.0 0.0 16.28999089631971 0.0 0.0 0.0 34.433804113860816" Properties=species:S:1:pos:R:3:initial_magmoms:R:1 pbc="T T T"
Si       1.35550719      -1.35809730       1.35944735       0.00000000
Si      -1.36213722       1.35736425       1.35958508       0.00000000
Si       1.35681039       1.34586351      -1.37843071       0.00000000
Si      -1.37378457      -1.34803008      -1.36026343       0.00000000
Si      -0.12083922       2.65452066      -2.70769681       0.00000000
Si       2.71308321       2.71627605      -0.00158396       0.00000000
Si       2.71301805       0.00013032       2.71713857       0.00000000
Si      -2.72370429       0.10826334      -2.70473206       0.00000000
Si      -2.72202642      -2.70933651       0.00123962       0.00000000
Si      -0.00185706      -2.71453302       2.71720743       0.00000000
