10
Lattice="16.28999089631971 0.0 0.0 0.0 16.28999089631971 0.0 0.0 0.0 34.433804113860816" Properties=species:S:1:pos:R:3:initial_magmoms:R:1 pbc="T T T"
Si      -0.04642650      -0.80127252       2.23847399       0.00000000
Si       0.72130491       2.27203146       0.33937976       0.00000000
Si       1.80923256      -1.73537370      -0.25477586       0.00000000
Si      -1.74729798      -0.85937895      -1.63378162       0.00000000
Si       1.33139799       2.37747663      -1.87926034       0.00000000
Si       0.17752842      -3.17443230       1.49174210       0.00000000
Si      -2.33067546      -1.01361267       2.70525890       0.00000000
Si       2.21063445       0.46020879      -3.05107779       0.00000000
Si      -0.50920911      -2.27069568      -3.06106359       0.00000000
Si       3.24047196      -1.48962276       1.80254179       0.00000000
