10
Lattice="16.28999089631971 0.0 0.0 0.0 16.28999089631971 0.0 0.0 0.0 34.433804113860816" Properties=species:S:1:pos:R:3:initial_magmoms:R:1 pbc="T T T"
Si      -1.92727967       0.74824694       1.05291745       0.00000000
Si       1.01667519       1.75322591      -1.24285442       0.00000000
Si       1.74739572      -1.22235925       1.05529338       0.00000000
Si      -0.47675943      -1.86625638      -1.41994757       0.00000000
Si       2.89351125      -0.99466577      -1.00925536       0.00000000
Si      -2.54824144      -1.34861163       1.94650960       0.00000000
Si       1.78965198       0.06129275       3.08864509       0.00000000
Si       0.74997531      -3.40975017       0.81194955       0.00000000
Si      -2.90860298       1.99070153      -0.78009827       0.00000000
Si       1.50589647      -1.64821473      -2.89461049       0.00000000
