10
Lattice="16.28999089631971 0.0 0.0 0.0 16.28999089631971 0.0 0.0 0.0 34.433804113860816" Properties=species:S:1:pos:R:3:initial_magmoms:R:1 pbc="T T T"
Si       1.63362636      -1.51884702      -0.76949265       0.00000000
Si      -1.75133790      -0.80798400      -1.47390537       0.00000000
Si       1.25929845       2.06480637      -0.24947305       0.00000000
Si      -0.63851913      -0.39592845       2.40737189       0.00000000
Si       1.88278191      -0.96677892      -3.09029791       0.00000000
Si       3.66961572      -0.85698432       0.26297111       0.00000000
Si      -2.84469012      -1.47955554       2.08693073       0.00000000
Si       3.59210790       1.26980550      -0.83505465       0.00000000
Si      -0.26828001       3.64127112      -1.47256246       0.00000000
Si      -2.23264224      -3.12906465      -0.92217222       0.00000000
