10
Lattice="16.28999089631971 0.0 0.0 0.0 16.28999089631971 0.0 0.0 0.0 34.433804113860816" Properties=species:S:1:pos:R:3:initial_magmoms:R:1 pbc="T T T"
Si      -1.01667519      -1.75322591       1.24285442       0.00000000
Si       2.37400686      -0.33746364      -0.24802683       0.00000000
Si      -0.63043929       2.06617473       1.07130511       0.00000000
Si       1.87683606      -2.74789168       0.23359906       0.00000000
Si      -2.68928841       2.20620357      -0.04190596       0.00000000
Si      -1.78008975       0.25959744      -3.25761186       0.00000000
Si      -0.06177168      -1.62077355      -3.35533505       0.00000000
Si       0.48922128      -3.40144064      -1.65175607       0.00000000
Si       0.73072053      -2.97558516       2.29814780       0.00000000
Si      -2.94395486      -1.00497897       2.29577187       0.00000000
