10
Lattice="16.28999089631971 0.0 0.0 0.0 16.28999089631971 0.0 0.0 0.0 34.433804113860816" Properties=species:S:1:pos:R:3:initial_magmoms:R:1 pbc="T T T"
Si      -1.25929845      -2.06480637       0.24947305       0.00000000
Si       1.31826825       0.82564236       1.91031965       0.00000000
Si      -1.52757846       1.57646475      -1.22308941       0.00000000
Si       2.33280945      -0.79500087      -0.58558160       0.00000000
Si       0.37432791      -3.58365339      -0.52001960       0.00000000
Si       3.08166075      -0.90432306       1.92192385       0.00000000
Si      -1.06241751       0.85379148      -3.51713959       0.00000000
Si       2.41031727      -2.92179069       0.51244416       0.00000000
Si       2.35667430       2.86979301       1.23899783       0.00000000
Si       2.46161448      -1.60378308      -2.76954685       0.00000000
