10
Lattice="16.28999089631971 0.0 0.0 0.0 16.28999089631971 0.0 0.0 0.0 34.433804113860816" Properties=species:S:1:pos:R:3:initial_magmoms:R:1 pbc="T T T"
Si      -0.56723409       1.84117725       1.48115711       0.00000000
Si      -2.20617099      -1.08362709      -0.32044116       0.00000000
Si       0.63851913       0.39592845      -2.40737189       0.00000000
Si       2.03284539      -1.16413227       1.26954063       0.00000000
Si      -1.38189699       0.09588294       2.84797818       0.00000000
Si       1.77901461      -3.15187065      -0.12168913       0.00000000
Si      -3.21377265      -0.81629190       1.73839781       0.00000000
Si      -1.11281877      -0.41205555      -3.88127727       0.00000000
Si       2.27214549      -1.12291857      -3.17686454       0.00000000
Si       1.22096808       2.64214026       2.84501343       0.00000000
