10
Lattice="16.28999089631971 0.0 0.0 0.0 16.28999089631971 0.0 0.0 0.0 34.433804113860816" Properties=species:S:1:pos:R:3:initial_magmoms:R:1 pbc="T T T"
Si       1.24299216      -1.43123940      -1.35245728       0.00000000
Si       1.35814617       1.34987085       1.35968150       0.00000000
Si      -1.35542574      -1.36809936       1.36012914       0.00000000
Si      -1.46828286       1.25665947      -1.40893219       0.00000000
Si      -0.54521001      -2.23220241      -2.71631360       0.00000000
Si       2.41385220       0.11065797      -2.72391280       0.00000000
Si      -2.43108702      -0.44492877      -2.72852381       0.00000000
Si      -2.72416041       2.69053785      -0.01017175       0.00000000
Si       0.00488700       2.70037169       2.71503122       0.00000000
Si       2.70659979       2.71537816      -0.00593639       0.00000000
