10
Lattice="16.28999089631971 0.0 0.0 0.0 16.28999089631971 0.0 0.0 0.0 34.433804113860816" Properties=species:S:1:pos:R:3:initial_magmoms:R:1 pbc="T T T"
Si      -0.02562580       2.30648807      -0.26658666       0.00000000
Si      -1.92466580      -0.35423745      -1.29133724       0.00000000
Si       1.94485170      -0.73939219      -1.08535411       0.00000000
Si      -0.31276148      -1.01866650       2.13369186       0.00000000
Si      -0.85586846      -0.69120751      -3.36480435       0.00000000
Si      -2.30137205       2.69099723       0.50769229       0.00000000
Si       3.09262881      -1.65423714       0.76088419       0.00000000
Si       0.98442588      -2.11200243      -2.77057986       0.00000000
Si      -2.87795660      -2.26299444      -0.21262886       0.00000000
Si       2.21565666       3.01046042       0.25684189       0.00000000
