10
Lattice="16.28999089631971 0.0 0.0 0.0 16.28999089631971 0.0 0.0 0.0 34.433804113860816" Properties=species:S:1:pos:R:3:initial_magmoms:R:1 pbc="T T T"
Si      -0.22097385       1.00980081       2.11761127       0.00000000
Si       1.34537481      -1.85303637       0.57122270       0.00000000
Si      -2.27418174      -0.23408730      -0.61808713       0.00000000
Si       0.26648811       1.71144369      -2.66331850       0.00000000
Si      -1.66408866      -0.12864213      -2.83672724       0.00000000
Si       0.05694984      -0.91610073       3.48453075       0.00000000
Si       2.28952692      -1.18521153       2.61428474       0.00000000
Si       2.42199720      -2.49785973      -1.39622267       0.00000000
Si       1.62316818       2.42761955       2.55354347       0.00000000
Si      -3.36002427       1.90361682       0.39895028       0.00000000
