10
Lattice="16.28999089631971 0.0 0.0 0.0 16.28999089631971 0.0 0.0 0.0 34.433804113860816" Properties=species:S:1:pos:R:3:initial_magmoms:R:1 pbc="T T T"
Si       1.04775651       1.49169159       1.45410593       0.00000000
Si       0.94222989      -2.08845945       0.61932675       0.00000000
Si      -1.99394487      -0.80602920       1.02840057       0.00000000
Si       0.12642669       0.14353119      -2.39008611       0.00000000
Si      -3.08273589      -0.95537592      -1.05092029       0.00000000
Si      -1.52179551      -1.55057994      -2.70877115       0.00000000
Si      -0.96661602      -2.84223033       1.86534908       0.00000000
Si       3.30871077       0.86431482       1.22866769       0.00000000
Si       2.95285572      -1.44247950       1.62871984       0.00000000
Si       0.80047431       0.59142474       3.74550470       0.00000000
