10
Lattice="16.28999089631971 0.0 0.0 0.0 16.28999089631971 0.0 0.0 0.0 34.433804113860816" Properties=species:S:1:pos:R:3:initial_magmoms:R:1 pbc="T T T"
Si      -1.35205371       1.35724207       1.35731245       0.00000000
Si       1.36234899      -1.35714041       1.35641717       0.00000000
Si      -1.36547667      -1.34537579      -1.36503251       0.00000000
Si       1.35104373       1.38133499      -1.34541556       0.00000000
Si      -2.43950895       0.11427761      -2.94613727       0.00000000
Si      -2.70801702       2.70489749      -0.00299574       0.00000000
Si       2.69620677       0.08571635      -2.71540999       0.00000000
Si      -2.70993924      -0.00113216       2.71218010       0.00000000
Si      -2.71393029      -2.71088310       0.00058537       0.00000000
Si       0.00519651       2.71322167       2.71321311       0.00000000
