10
Lattice="16.28999089631971 0.0 0.0 0.0 16.28999089631971 0.0 0.0 0.0 34.433804113860816" Properties=species:S:1:pos:R:3:initial_magmoms:R:1 pbc="T T T"
Si       1.35718506       1.35671524       1.35720915       0.00000000
Si      -1.35799956      -1.35804325       1.35610727       0.00000000
Si      -1.36234899       1.35714041      -1.35641717       0.00000000
Si       1.35646830      -1.35752197      -1.36323507       0.00000000
Si      -0.00037467       2.71366573       2.71390179       0.00000000
Si       2.71417464       2.71431733      -0.00030990       0.00000000
Si      -2.71440270       2.71438249       0.00089528       0.00000000
Si       2.71450044      -0.00139355       2.71441830       0.00000000
Si      -2.71523349      -0.00103760       2.71414282       0.00000000
Si      -0.00030951      -2.71698763       2.71359188       0.00000000
