10
Lattice="16.28999089631971 0.0 0.0 0.0 16.28999089631971 0.0 0.0 0.0 34.433804113860816" Properties=species:S:1:pos:R:3:initial_magmoms:R:1 pbc="T T T"
Si       0.02562580      -2.30648807       0.26658666       0.00000000
Si       2.24128246       0.70397235       0.52342855       0.00000000
Si      -0.32141147       0.69607170      -2.28661247       0.00000000
Si      -2.27574625       0.38450916       0.77427895       0.00000000
Si      -1.89904000      -2.66072552      -1.02475058       0.00000000
Si      -3.27165169      -0.70353252      -1.15525477       0.00000000
Si       1.80363532       2.85197175       1.34722334       0.00000000
Si       3.13834018       0.77874345      -1.74934153       0.00000000
Si      -0.13394778       3.67360677       0.23718018       0.00000000
Si      -2.23368547       2.75687073       1.00725820       0.00000000
