10
Lattice="16.28999089631971 0.0 0.0 0.0 16.28999089631971 0.0 0.0 0.0 34.433804113860816" Properties=species:S:1:pos:R:3:initial_magmoms:R:1 pbc="T T T"
Si       1.90174347       0.66973240       1.20607910       0.00000000
Si      -1.81703547       1.05530530       1.05109246       0.00000000
Si       0.21517461      -2.28455914       0.70420612       0.00000000
Si       0.43394931       1.11945532      -2.19150625       0.00000000
Si       1.34962650       2.93611612       1.57834316       0.00000000
Si      -1.02335409       3.32028319       1.29154385       0.00000000
Si       2.69229717       1.78063384      -1.84957839       0.00000000
Si       3.74228541       0.48313534      -0.23604386       0.00000000
Si       2.47612887      -2.91193591       0.47876788       0.00000000
Si      -0.83258190      -3.77625073      -0.74989981       0.00000000
