10
Lattice="16.28999089631971 0.0 0.0 0.0 16.28999089631971 0.0 0.0 0.0 34.433804113860816" Properties=species:S:1:pos:R:3:initial_magmoms:R:1 pbc="T T T"
Si       1.84054194      -0.18659706      -1.44212296       0.00000000
Si      -1.90174347      -0.66973240      -1.20607910       0.00000000
Si       0.74331270      -1.11461067       1.94210207       0.00000000
Si      -0.55211697       2.26638372       0.37226406       0.00000000
Si       0.79055370       1.11090144      -3.05565748       0.00000000
Si      -1.68656886      -2.95429154      -0.50187298       0.00000000
Si      -0.13281237       2.21106288       2.72068525       0.00000000
Si       0.57438540      -3.58166831      -0.72731122       0.00000000
Si       1.62509040       0.65505837       3.27252170       0.00000000
Si       1.94241960      -2.97843332       1.11734313       0.00000000
