10
Lattice="16.28999089631971 0.0 0.0 0.0 16.28999089631971 0.0 0.0 0.0 34.433804113860816" Properties=species:S:1:pos:R:3:initial_magmoms:R:1 pbc="T T T"
Si       1.63983285      -0.85076154      -1.50224441       0.00000000
Si      -0.74626119       2.29472343       0.29127571       0.00000000
Si      -2.17295568      -1.07189829       0.21404065       0.00000000
Si       1.72517616      -0.68966973       1.59266763       0.00000000
Si      -2.21622192      -0.46203327      -2.53112705       0.00000000
Si      -1.34086248      -2.82965445       1.46650210       0.00000000
Si       1.93142385      -3.08457666      -0.85585268       0.00000000
Si      -3.42867033       0.25148502       1.65816076       0.00000000
Si       3.75018606       0.43611588       0.85206496       0.00000000
Si      -0.02710656       2.98867743       2.46973155       0.00000000
