10
Lattice="16.28999089631971 0.0 0.0 0.0 16.28999089631971 0.0 0.0 0.0 34.433804113860816" Properties=species:S:1:pos:R:3:initial_magmoms:R:1 pbc="T T T"
Si       0.41475969       0.93719628       2.06010678       0.00000000
Si       0.18033030      -2.02702986      -1.08325365       0.00000000
Si      -0.83209320       1.75775616      -1.25246146       0.00000000
Si      -1.16234037      -0.87154758       2.34466790       0.00000000
Si       1.34086248       2.82965445      -1.46650210       0.00000000
Si       1.23031854      -3.32452836       0.53028088       0.00000000
Si      -2.07801756      -2.68820838      -1.42518151       0.00000000
Si      -2.08780785       3.08113947       0.19165866       0.00000000
Si       3.06603864       2.13998472       0.12616553       0.00000000
Si      -0.61022340      -3.13793130       1.97240384       0.00000000
