10
Lattice="16.28999089631971 0.0 0.0 0.0 16.28999089631971 0.0 0.0 0.0 34.433804113860816" Properties=species:S:1:pos:R:3:initial_magmoms:R:1 pbc="T T T"
Si      -0.41475969      -0.93719628      -2.06010678       0.00000000
Si      -1.44937017       1.87312194       0.21355857       0.00000000
Si       1.96700121       1.35387819       0.25594661       0.00000000
Si      -1.57710006      -1.80874386       0.28456112       0.00000000
Si       0.49563954       3.18971232       0.51688612       0.00000000
Si      -1.15779546      -1.86406470       2.63298230       0.00000000
Si       2.65127895       1.20278844      -1.93394126       0.00000000
Si      -1.24685289       0.82055988      -3.31256824       0.00000000
Si      -1.18482057       0.32110848       3.53972817       0.00000000
Si      -2.50256754       2.14394319      -1.86844812       0.00000000
