10
Lattice="16.28999089631971 0.0 0.0 0.0 16.28999089631971 0.0 0.0 0.0 34.433804113860816" Properties=species:S:1:pos:R:3:initial_magmoms:R:1 pbc="T T T"
Si      -1.42794882       1.78253325       0.52346298       0.00000000
Si       0.72677835      -1.61981244       1.53895087       0.00000000
Si       0.34661862      -1.68054156      -1.65533719       0.00000000
Si       1.99277199       1.15759998       0.78860342       0.00000000
Si       1.89141561      -2.82908430      -0.15984181       0.00000000
Si       2.55262671       1.53282384      -1.70385445       0.00000000
Si       1.67221737      -0.31623777      -2.98699644       0.00000000
Si      -2.85918822       1.53678231      -1.53385466       0.00000000
Si      -1.86870735       1.23196383       2.82808435       0.00000000
Si       0.74906307       3.28041504      -1.71783458       0.00000000
