10
Lattice="16.28999089631971 0.0 0.0 0.0 16.28999089631971 0.0 0.0 0.0 34.433804113860816" Properties=species:S:1:pos:R:3:initial_magmoms:R:1 pbc="T T T"
Si      -1.35195597      -1.35601218       1.36466063       0.00000000
Si      -1.42045542       1.31237127      -1.34914475       0.00000000
Si       1.36202319       1.35956340       1.36328327       0.00000000
Si       1.35764118      -1.30404708      -1.45924001       0.00000000
Si       2.72678310      -2.69532711      -0.01125986       0.00000000
Si      -2.70822879      -2.72642472      -0.01218613       0.00000000
Si      -2.70987408       0.00131949       2.72562306       0.00000000
Si       0.00500103      -2.71415835       2.72589853       0.00000000
Si       0.00555489       2.71708537       2.72651834       0.00000000
Si       2.72803743       2.71666701      -0.01983388       0.00000000
