10
Lattice="16.28999089631971 0.0 0.0 0.0 16.28999089631971 0.0 0.0 0.0 34.433804113860816" Properties=species:S:1:pos:R:3:initial_magmoms:R:1 pbc="T T T"
Si      -0.94415211      -0.66782484      -2.04306204       0.00000000
Si       1.04576913       2.08070541       0.55414352       0.00000000
Si      -2.23257708       0.26911080       0.87024602       0.00000000
Si       1.55422890      -1.81441278       0.34575002       0.00000000
Si      -2.51050077       2.19501234      -0.49667347       0.00000000
Si      -2.28952692       1.18521153      -2.61428474       0.00000000
Si      -0.66635874       3.61283108      -0.06074126       0.00000000
Si       3.61445778      -0.65495574       0.38045931       0.00000000
Si      -2.04454161      -2.81052999      -1.76920984       0.00000000
Si       2.10963645       2.94220206      -1.48306477       0.00000000
