10
Lattice="16.28999089631971 0.0 0.0 0.0 16.28999089631971 0.0 0.0 0.0 34.433804113860816" Properties=species:S:1:pos:R:3:initial_magmoms:R:1 pbc="T T T"
Si       0.15918588       0.84486456       2.18231242       0.00000000
Si      -2.11320396      -0.76277925      -0.71746314       0.00000000
Si       0.11787444       1.81113849      -1.52999807       0.00000000
Si       1.42503291      -1.93315059       0.41396342       0.00000000
Si      -2.26989747      -2.50849710       0.80843730       0.00000000
Si       2.48787396       1.25959167       2.17098370       0.00000000
Si      -1.60601481      -1.09889082      -2.97460026       0.00000000
Si      -0.26562474      -3.55758939       0.17588797       0.00000000
Si      -0.12988017      -1.07846316       3.54220741       0.00000000
Si       2.36434689       2.03465358      -2.08569111       0.00000000
