10
Lattice="16.28999089631971 0.0 0.0 0.0 16.28999089631971 0.0 0.0 0.0 34.433804113860816" Properties=species:S:1:pos:R:3:initial_magmoms:R:1 pbc="T T T"
Si       1.03840605       2.04415065      -0.67132182       0.00000000
Si      -1.31826825      -0.82564236      -1.91031965       0.00000000
Si       1.76339250      -1.72996542       0.01160420       0.00000000
Si      -0.82425771       0.89766045       2.22008320       0.00000000
Si       1.01454120      -1.62064323      -2.49590125       0.00000000
Si      -1.01051757       3.46960710      -0.40545827       0.00000000
Si       3.28336353      -0.99939150      -1.94609639       0.00000000
Si      -2.02439088       3.09138588       1.77361737       0.00000000
Si       3.11007051       2.64318282       0.53234691       0.00000000
Si       2.60413569      -2.36130066       2.19377889       0.00000000
