10
Lattice="16.28999089631971 0.0 0.0 0.0 16.28999089631971 0.0 0.0 0.0 34.433804113860816" Properties=species:S:1:pos:R:3:initial_magmoms:R:1 pbc="T T T"
Si       0.83684988       1.81205073      -1.29643345       0.00000000
Si      -1.05684633      -0.06815736       2.13424281       0.00000000
Si       1.95356196      -1.38616497       0.10164865       0.00000000
Si      -1.83005118      -0.85281408      -1.34529504       0.00000000
Si      -1.45787355       2.20371120       1.52779431       0.00000000
Si      -0.38869569      -2.13585520      -2.64710017       0.00000000
Si       2.32753149       0.61511040      -2.66114917       0.00000000
Si       1.00559799      -3.33171274      -1.05842686       0.00000000
Si      -2.30790204      -2.05342943       1.97932503       0.00000000
Si       0.65621007       3.13541775       1.96978687       0.00000000
