10
Lattice="16.28999089631971 0.0 0.0 0.0 16.28999089631971 0.0 0.0 0.0 34.433804113860816" Properties=species:S:1:pos:R:3:initial_magmoms:R:1 pbc="T T T"
Si       0.33599754       1.86961959       1.38227697       0.00000000
Si       0.79270398       0.92336607      -2.02928851       0.00000000
Si       1.60796961      -1.40335907       1.10639318       0.00000000
Si      -2.34768222      -0.62064900      -0.03873805       0.00000000
Si       2.68251732       1.98944883       1.78274234       0.00000000
Si       0.43854309      -2.72999942       2.67096281       0.00000000
Si       0.83476476       3.29572764      -1.79630926       0.00000000
Si      -0.04080645       3.89619333       0.32791330       0.00000000
Si       2.78131455      -2.78629766      -0.40328894       0.00000000
Si      -0.20320146      -0.16467561      -3.95882224       0.00000000
