10
Lattice="16.28999089631971 0.0 0.0 0.0 16.28999089631971 0.0 0.0 0.0 34.433804113860816" Properties=species:S:1:pos:R:3:initial_magmoms:R:1 pbc="T T T"
Si       2.13084181       0.99693823      -0.35249905       0.00000000
Si       0.63668131      -1.31041714       1.95838927       0.00000000
Si      -1.97429913       1.67352709       0.02499896       0.00000000
Si      -1.09525815      -1.04428741      -2.10104860       0.00000000
Si      -3.07646424      -0.18640647      -0.96607535       0.00000000
Si       1.90736419       1.47195463      -2.68966038       0.00000000
Si       2.57197013      -2.14185874      -1.38448074       0.00000000
Si       0.07416837       0.28235294      -3.66561823       0.00000000
Si       1.81315423      -3.33317902       0.67325011       0.00000000
Si       1.82862810       0.26364713       3.51058480       0.00000000
