10
Lattice="16.28999089631971 0.0 0.0 0.0 16.28999089631971 0.0 0.0 0.0 34.433804113860816" Properties=species:S:1:pos:R:3:initial_magmoms:R:1 pbc="T T T"
Si      -1.35676152      -1.35549090       1.35820773       0.00000000
Si       1.35736425      -1.35752715      -1.35710585       0.00000000
Si      -1.35749457       1.35755973      -1.35731245       0.00000000
Si       1.35962856       1.35695700       1.35748462       0.00000000
Si       0.00112401       2.71272483      -2.71500367       0.00000000
Si       2.71638201      -0.00006516       2.71145699       0.00000000
Si      -0.00063531      -2.71420722      -2.71421169       0.00000000
Si       2.71356910       0.00159642      -2.71486593       0.00000000
Si       2.71499904      -2.71494027       0.00058537       0.00000000
Si      -2.71518462      -2.71485882       0.00000000       0.00000000
