10
Lattice="16.28999089631971 0.0 0.0 0.0 16.28999089631971 0.0 0.0 0.0 34.433804113860816" Properties=species:S:1:pos:R:3:initial_magmoms:R:1 pbc="T T T"
Si       1.35675345      -1.35702216       1.35397237       0.00000000
Si       1.35561908       1.35826020      -1.35779452       0.00000000
Si      -1.35962856      -1.35695700      -1.35748462       0.00000000
Si      -1.35762489       1.35741312       1.35979168       0.00000000
Si       0.00285075      -2.69977428       2.70949426       0.00000000
Si       2.71004580      -2.71419093       0.00037877       0.00000000
Si      -2.71305063      -0.00562005       2.71307538       0.00000000
Si       2.71296171       0.00061902      -2.71445273       0.00000000
Si       2.71268152       2.71555929      -0.00034434       0.00000000
Si      -2.71639008      -2.71244790       0.00072311       0.00000000
