10
Lattice="16.28999089631971 0.0 0.0 0.0 16.28999089631971 0.0 0.0 0.0 34.433804113860816" Properties=species:S:1:pos:R:3:initial_magmoms:R:1 pbc="T T T"
Si      -1.25040411       1.46701224      -1.33420735       0.00000000
Si       1.46726866      -1.27079919      -1.32353287       0.00000000
Si       1.74683276       1.05784002       1.16503398       0.00000000
Si      -1.40844969      -1.42951266       1.42710981       0.00000000
Si       0.68352418       2.20499811       2.85229132       0.00000000
Si      -2.59946046       0.11109780      -2.69010802       0.00000000
Si       0.11491788      -2.60333748      -2.69592733       0.00000000
Si      -2.49056181       2.87156862       0.08925247       0.00000000
Si       2.88332090      -2.53891053       0.18356671       0.00000000
Si      -2.72966643      -2.74914927       0.02431028       0.00000000
