10
Lattice="16.28999089631971 0.0 0.0 0.0 16.28999089631971 0.0 0.0 0.0 34.433804113860816" Properties=species:S:1:pos:R:3:initial_magmoms:R:1 pbc="T T T"
Si      -1.32121674      -1.31963661      -1.40279953       0.00000000
Si      -1.50185655       0.00373041       1.86342078       0.00000000
Si       1.40844969       1.42951266      -1.42710981       0.00000000
Si      -1.44171387       2.25476406       1.91242012       0.00000000
Si       0.16946487      -2.51657694      -2.76751525       0.00000000
Si      -2.54643651       0.17757729      -2.76393413       0.00000000
Si      -2.15806662      -3.13168734      -0.10636608       0.00000000
Si       2.87571835       0.15871347      -2.75064268       0.00000000
Si      -3.61594017      -0.92797614       1.42142823       0.00000000
Si       0.15804558       2.89652490      -2.76131716       0.00000000
