10
Lattice="16.28999089631971 0.0 0.0 0.0 16.28999089631971 0.0 0.0 0.0 34.433804113860816" Properties=species:S:1:pos:R:3:initial_magmoms:R:1 pbc="T T T"
Si      -1.35235078      -1.33253829      -1.37239446       0.00000000
Si      -1.46726866       1.27079919       1.32353287       0.00000000
Si       1.36071510       1.38474774      -1.36588647       0.00000000
Si       1.41605223      -1.26811134       1.50709958       0.00000000
Si       0.27956409       2.32863921       2.48856685       0.00000000
Si       2.16317679       0.76569516       2.67061847       0.00000000
Si      -2.70625348      -2.67529041      -0.01687257       0.00000000
Si       2.73531417      -2.67706602       0.02007492       0.00000000
Si       0.00094156      -2.68970706      -2.72598806       0.00000000
Si      -2.70910423       0.02448387      -2.72636683       0.00000000
