10
Lattice="16.28999089631971 0.0 0.0 0.0 16.28999089631971 0.0 0.0 0.0 34.433804113860816" Properties=species:S:1:pos:R:3:initial_magmoms:R:1 pbc="T T T"
Si      -0.65482542       0.63599418      -2.15366348       0.00000000
Si       0.99797331      -2.10264804       0.33455903       0.00000000
Si       1.70094383       1.66790052       0.56371612       0.00000000
Si      -2.22650091       0.25482447       1.14161898       0.00000000
Si      -1.18560249      -1.98597906       1.49002040       0.00000000
Si       1.52049624       0.64125585      -2.94447067       0.00000000
Si      -1.76855643       2.80482849      -1.48127421       0.00000000
Si       3.25390211      -1.50117237       0.74790264       0.00000000
Si       2.61994418       2.13418548      -1.53950181       0.00000000
Si       1.07581833      -3.13215975      -1.75522971       0.00000000
