10
Lattice="16.28999089631971 0.0 0.0 0.0 16.28999089631971 0.0 0.0 0.0 34.433804113860816" Properties=species:S:1:pos:R:3:initial_magmoms:R:1 pbc="T T T"
Si      -1.35733167       1.31098662       1.46756955       0.00000000
Si      -1.82172699      -0.80638758      -1.36213460       0.00000000
Si       1.89445274       0.89261055      -1.21750569       0.00000000
Si       1.33392294      -1.43096247       1.46803441       0.00000000
Si       2.69746666       2.60643258       0.17820881       0.00000000
Si      -2.67688683      -2.65245183      -0.05048687       0.00000000
Si       3.58525700      -0.86988600      -0.96923844       0.00000000
Si      -2.72647359       2.70226665       0.01958940       0.00000000
Si       2.65608680      -2.81096982       0.01476867       0.00000000
Si      -0.00649971       2.64657114       2.84744993       0.00000000
