10
Lattice="16.28999089631971 0.0 0.0 0.0 16.28999089631971 0.0 0.0 0.0 34.433804113860816" Properties=species:S:1:pos:R:3:initial_magmoms:R:1 pbc="T T T"
Si      -1.35690813       1.35725022       1.35751905       0.00000000
Si       1.35804629      -1.35746199       1.35669264       0.00000000
Si       1.35849484       1.35811359      -1.35734688       0.00000000
Si      -1.35607734      -1.35995436      -1.35800113       0.00000000
Si       0.00004887       2.71195920      -2.71479707       0.00000000
Si       2.71510873      -0.00016290       2.71414282       0.00000000
Si      -2.71464705       2.71487511      -0.00013774       0.00000000
Si      -2.71469592      -2.71511946      -0.00030990       0.00000000
Si       0.00242721      -2.71572219       2.71448716       0.00000000
Si       2.71545733       2.71484253       0.00027547       0.00000000
