10
Lattice="16.28999089631971 0.0 0.0 0.0 16.28999089631971 0.0 0.0 0.0 34.433804113860816" Properties=species:S:1:pos:R:3:initial_magmoms:R:1 pbc="T T T"
Si       1.35178234      -1.35480672      -1.36189215       0.00000000
Si      -1.36946772      -1.35703845       1.35414454       0.00000000
Si      -1.36291914       1.36243044      -1.36041149       0.00000000
Si       1.36931038       1.35452979       1.36626524       0.00000000
Si      -0.06968862       2.53944810       2.76896147       0.00000000
Si      -2.60962542       0.04751793       2.77760436       0.00000000
Si       2.70892016      -2.71010214      -0.00106745       0.00000000
Si       2.71167317       2.71251306      -0.00254810       0.00000000
Si       2.70944144       0.00262269      -2.71875696       0.00000000
Si      -0.00528010      -2.71210581      -2.71934233       0.00000000
