10
Lattice="16.28999089631971 0.0 0.0 0.0 16.28999089631971 0.0 0.0 0.0 34.433804113860816" Properties=species:S:1:pos:R:3:initial_magmoms:R:1 pbc="T T T"
Si      -0.06014268      -2.25103365      -0.04899933       0.00000000
Si      -2.07286992       0.80394408       0.45745334       0.00000000
Si       2.04949377       0.45227556       0.99971719       0.00000000
Si      -1.51301520       1.17916794      -2.03500453       0.00000000
Si       1.44171387      -2.25476406      -1.91242012       0.00000000
Si       0.51719121      -2.36219661       2.23668343       0.00000000
Si       3.53368774       1.37974671      -0.48723860       0.00000000
Si      -1.89482022       2.42499456       2.30727277       0.00000000
Si       0.35960175       2.04631722      -3.25027745       0.00000000
Si      -2.17422630      -3.18274020      -0.49099189       0.00000000
