10
Lattice="16.28999089631971 0.0 0.0 0.0 16.28999089631971 0.0 0.0 0.0 34.433804113860816" Properties=species:S:1:pos:R:3:initial_magmoms:R:1 pbc="T T T"
Si       0.06608853      -1.70074116      -1.57262715       0.00000000
Si      -1.81799658       1.43143488      -0.23036228       0.00000000
Si       0.31216527      -0.90502353       2.17032945       0.00000000
Si       2.02970698       1.29766140      -0.17516486       0.00000000
Si       2.22515277       0.45939429       2.01551498       0.00000000
Si       1.55028250      -0.77327001      -3.05958294       0.00000000
Si       3.24184751      -0.24812928      -1.47731432       0.00000000
Si       1.10714498      -3.43891674      -0.30918130       0.00000000
Si      -1.44085050       2.96425872       1.57968608       0.00000000
Si       1.38020839       3.42880065      -0.97261777       0.00000000
