10
Lattice="16.28999089631971 0.0 0.0 0.0 16.28999089631971 0.0 0.0 0.0 34.433804113860816" Properties=species:S:1:pos:R:3:initial_magmoms:R:1 pbc="T T T"
Si       0.58051044       2.24384976      -0.39509369       0.00000000
Si       1.19685888      -0.92167191      -1.80997949       0.00000000
Si      -2.24845983      -0.69242274      -0.34399390       0.00000000
Si       0.93025674      -0.37265004       2.18782183       0.00000000
Si       2.99183673       2.11046724      -0.38438477       0.00000000
Si       3.10984638       0.44274591      -1.96479396       0.00000000
Si      -2.65181652      -2.38384602       1.22976957       0.00000000
Si      -0.92286108      -0.08141742       3.68648513       0.00000000
Si      -0.55615689       2.94761034      -2.40062286       0.00000000
Si      -3.95390880       0.75284235       0.29792144       0.00000000
