10
Lattice="16.28999089631971 0.0 0.0 0.0 16.28999089631971 0.0 0.0 0.0 34.433804113860816" Properties=species:S:1:pos:R:3:initial_magmoms:R:1 pbc="T T T"
Si       1.80939546       1.53731988      -0.28642054       0.00000000
Si       1.29347487      -1.47706317      -1.51928915       0.00000000
Si      -1.43213535       1.50772095      -1.35868980       0.00000000
Si      -0.44413056      -0.92400138       2.50254698       0.00000000
Si      -1.94895189       2.67315642       0.63902289       0.00000000
Si       2.75407441       1.07336439       1.76029148       0.00000000
Si       2.28999933       0.02979441      -3.09835543       0.00000000
Si       1.37386602      -2.35543626       2.73290926       0.00000000
Si      -0.24993747      -2.46213576      -3.08971254       0.00000000
Si       1.18056888       2.17942281       3.13272038       0.00000000
