10
Lattice="16.28999089631971 0.0 0.0 0.0 16.28999089631971 0.0 0.0 0.0 34.433804113860816" Properties=species:S:1:pos:R:3:initial_magmoms:R:1 pbc="T T T"
Si       1.81799658      -1.43143488       0.23036228       0.00000000
Si      -2.06022888      -1.15945704      -0.03470929       0.00000000
Si       0.37714608       1.53282384       1.81004836       0.00000000
Si       0.44413056       0.92400138      -2.50254698       0.00000000
Si       1.62469944       3.10342419       0.63017340       0.00000000
Si      -3.61445778       0.65495574      -0.38045931       0.00000000
Si      -2.56868865       2.73566115       0.17368421       0.00000000
Si       3.19820497       1.99736577      -0.74225550       0.00000000
Si       3.84770356      -0.13377348       0.05519742       0.00000000
Si      -2.03431149      -2.80116324       1.68822149       0.00000000
