10
Lattice="16.28999089631971 0.0 0.0 0.0 16.28999089631971 0.0 0.0 0.0 34.433804113860816" Properties=species:S:1:pos:R:3:initial_magmoms:R:1 pbc="T T T"
Si      -2.24647245      -0.22351509       0.55569304       0.00000000
Si       0.56405754      -1.64253699      -1.58192428       0.00000000
Si       0.95329080       1.90875699      -1.07870838       0.00000000
Si       1.12368420      -0.56856987       2.04798608       0.00000000
Si       2.87795660       2.26299444       0.21262886       0.00000000
Si       2.56519512       1.24432794       2.34632072       0.00000000
Si      -0.57260979      -0.93877641      -3.58745345       0.00000000
Si      -2.36434689      -2.03465358       2.08569111       0.00000000
Si       2.97538383      -1.77591951      -1.57121536       0.00000000
Si      -3.61450665      -0.82675008      -1.28896131       0.00000000
