10
Lattice="16.28999089631971 0.0 0.0 0.0 16.28999089631971 0.0 0.0 0.0 34.433804113860816" Properties=species:S:1:pos:R:3:initial_magmoms:R:1 pbc="T T T"
Si       1.44151092       1.81289781       0.29833465       0.00000000
Si       1.28876936      -1.96864650      -0.24561646       0.00000000
Si      -1.12368420       0.56856987      -2.04798608       0.00000000
Si      -1.00015713      -0.20649204       2.20868873       0.00000000
Si       0.26816598       3.19583640       1.80801676       0.00000000
Si      -3.37015665       0.34505478      -1.49229304       0.00000000
Si       2.18325489      -2.33763129       1.92219932       0.00000000
Si      -3.48803109      -1.46608371       0.03770504       0.00000000
Si       1.75427240       2.83156431      -1.83535722       0.00000000
Si      -0.55962666      -1.07396712      -3.62991036       0.00000000
