10
Lattice="16.28999089631971 0.0 0.0 0.0 16.28999089631971 0.0 0.0 0.0 34.433804113860816" Properties=species:S:1:pos:R:3:initial_magmoms:R:1 pbc="T T T"
Si      -0.80445070      -0.38597526       2.18537703       0.00000000
Si       0.83926080      -2.00596689      -0.93701320       0.00000000
Si      -2.01045383       0.52955532      -1.14633641       0.00000000
Si       1.56429612       1.75326012       0.44164822       0.00000000
Si      -0.99191439      -3.36351033      -0.33841562       0.00000000
Si       1.49631795       3.01360113      -1.49184540       0.00000000
Si       1.13313240      -1.20761028       3.29542020       0.00000000
Si      -0.91321740       1.75544298       3.12428409       0.00000000
Si       0.83227239       1.57428189      -3.25857601       0.00000000
Si      -1.54744802       0.31897449      -3.47416617       0.00000000
