10
Lattice="16.28999089631971 0.0 0.0 0.0 16.28999089631971 0.0 0.0 0.0 34.433804113860816" Properties=species:S:1:pos:R:3:initial_magmoms:R:1 pbc="T T T"
Si       1.35607734      -1.25589384      -1.37897132       0.00000000
Si      -1.36358866       1.30824990      -1.34110445       0.00000000
Si      -1.34907427      -1.36251189       1.32527866       0.00000000
Si       1.36052451       1.35350352       1.33065034       0.00000000
Si      -0.47579832      -2.16806868      -2.48855170       0.00000000
Si      -2.16660258      -0.40557213      -2.73681894       0.00000000
Si       2.17074024       0.48940047      -2.74579239       0.00000000
Si       0.28486323       2.27667411      -2.75800260       0.00000000
Si       0.00381186       2.70615996       2.68675760       0.00000000
Si      -2.70910905      -0.00545715       2.68558685       0.00000000
