10
Lattice="16.28999089631971 0.0 0.0 0.0 16.28999089631971 0.0 0.0 0.0 34.433804113860816" Properties=species:S:1:pos:R:3:initial_magmoms:R:1 pbc="T T T"
Si       1.35754996      -1.35618019       1.35745018       0.00000000
Si      -1.35771478      -1.35787491      -1.35669264       0.00000000
Si       1.35673546       1.35819015      -1.35741575       0.00000000
Si      -1.35784372       1.35804354       1.35803556       0.00000000
Si       0.00126410      -2.71122193      -2.71472820       0.00000000
Si       0.00037793      -2.71169434       2.71627772       0.00000000
Si       2.71426261      -2.71438219       0.00024104       0.00000000
Si      -2.71552738      -2.71426816       0.00041321       0.00000000
Si       2.71654321      -0.00083731       2.71331641       0.00000000
Si       2.71483276       2.71535892       0.00048207       0.00000000
