10
Lattice="16.28999089631971 0.0 0.0 0.0 16.28999089631971 0.0 0.0 0.0 34.433804113860816" Properties=species:S:1:pos:R:3:initial_magmoms:R:1 pbc="T T T"
Si      -2.01051180      -1.02750804       0.60042258       0.00000000
Si      -0.38387385       2.32862292      -0.18446199       0.00000000
Si       0.46700172      -1.02969090      -2.08221330       0.00000000
Si       1.75164741      -0.73016667       1.53526645       0.00000000
Si      -2.20767456       2.34075897       1.28066276       0.00000000
Si       2.61599481      -1.73192022      -1.60561475       0.00000000
Si       2.11045095      -2.83395501       0.44047747       0.00000000
Si      -1.70905232      -1.61852553       2.82140418       0.00000000
Si      -1.90174510      -3.16892628      -0.33848448       0.00000000
Si       1.80726147       3.27008718      -0.01246504       0.00000000
