10
Lattice="16.28999089631971 0.0 0.0 0.0 16.28999089631971 0.0 0.0 0.0 34.433804113860816" Properties=species:S:1:pos:R:3:initial_magmoms:R:1 pbc="T T T"
Si       0.91900035       0.46628496      -2.10321793       0.00000000
Si      -1.70094383      -1.66790052      -0.56371612       0.00000000
Si       1.99862010      -1.01387331       1.14878121       0.00000000
Si      -0.97117070       2.21659659       0.70038397       0.00000000
Si      -0.69978582       1.01595843       2.95935294       0.00000000
Si       0.99101844      -0.74653812       3.20762018       0.00000000
Si       1.55295828      -3.16907289       0.18418652       0.00000000
Si      -0.18044759      -1.02664467      -3.50818679       0.00000000
Si      -1.78757405       2.82831867      -1.59087707       0.00000000
Si      -2.35576925      -1.03190634      -2.71737960       0.00000000
