10
Lattice="16.28999089631971 0.0 0.0 0.0 16.28999089631971 0.0 0.0 0.0 34.433804113860816" Properties=species:S:1:pos:R:3:initial_magmoms:R:1 pbc="T T T"
Si      -0.96280416      -1.70158824      -1.31959161       0.00000000
Si      -1.25587755       1.43387838       1.39876044       0.00000000
Si       1.46828286      -1.25665947       1.40893219       0.00000000
Si       0.35676729       1.71859567      -1.63724363       0.00000000
Si       2.68200189       1.04772393      -1.76144643       0.00000000
Si      -2.61125605      -2.67001245       0.09730654       0.00000000
Si      -2.65969762       2.67862401      -0.07685285       0.00000000
Si      -2.59836577       0.09127287       2.76616889       0.00000000
Si       0.11285712      -2.62475883       2.76906133       0.00000000
Si       2.71127502      -2.68789887       0.05647491       0.00000000
