10
Lattice="16.28999089631971 0.0 0.0 0.0 16.28999089631971 0.0 0.0 0.0 34.433804113860816" Properties=species:S:1:pos:R:3:initial_magmoms:R:1 pbc="T T T"
Si       1.34248822       1.34260551      -1.36740845       0.00000000
Si      -1.35897889       1.35334702       1.35803556       0.00000000
Si       1.35451024      -1.36337526       1.35899971       0.00000000
Si      -1.38342467      -1.34830701      -1.37427455       0.00000000
Si       2.59836577      -0.09127287      -2.76616889       0.00000000
Si       2.71632166       2.70769026      -0.00440753       0.00000000
Si      -0.00126410       2.71122193       2.71472820       0.00000000
Si       2.71122289      -2.71603170       0.00289244       0.00000000
Si       2.71299850      -0.00316026       2.71496924       0.00000000
Si      -2.71584666       2.71231662      -0.00278914       0.00000000
