10
Lattice="16.28999089631971 0.0 0.0 0.0 16.28999089631971 0.0 0.0 0.0 34.433804113860816" Properties=species:S:1:pos:R:3:initial_magmoms:R:1 pbc="T T T"
Si      -1.35980612       1.35806472      -1.36416478       0.00000000
Si       1.35990549      -1.35852247      -1.36616194       0.00000000
Si      -1.37354999      -1.36118263       1.35810443       0.00000000
Si       1.37456649       1.37070576       1.38189820       0.00000000
Si      -2.64120978       0.12395061       2.74981627       0.00000000
Si       2.70764235      -2.70549926      -0.01239618       0.00000000
Si       2.71292031       2.71373481      -0.00533724       0.00000000
Si      -2.71309847       2.71523349      -0.01057118       0.00000000
Si      -2.71471280      -2.71407229      -0.00568158       0.00000000
Si       0.00091224      -2.71386536      -2.72202817       0.00000000
