10
Lattice="16.28999089631971 0.0 0.0 0.0 16.28999089631971 0.0 0.0 0.0 34.433804113860816" Properties=species:S:1:pos:R:3:initial_magmoms:R:1 pbc="T T T"
Si      -1.43899900       1.18491831       1.40269623       0.00000000
Si       1.34236279       1.35798327      -1.36881335       0.00000000
Si      -1.36931038      -1.35452979      -1.36626524       0.00000000
Si       1.47009268      -1.29420792       1.41760607       0.00000000
Si      -0.07148867       2.56803705       2.71978997       0.00000000
Si       2.70818155      -2.70552465      -0.00967590       0.00000000
Si       2.69821207       0.00578295      -2.72667674       0.00000000
Si       2.69311330       2.73841416      -0.00909053       0.00000000
Si      -0.01752804      -2.70933651      -2.72815739       0.00000000
Si      -0.01661743       2.72345994      -2.72647013       0.00000000
