10
Lattice="16.28999089631971 0.0 0.0 0.0 16.28999089631971 0.0 0.0 0.0 34.69518985606464" Properties=species:S:1:pos:R:3:initial_magmoms:R:1 pbc="T T T"
Si       0.84333330      -2.01769569      -1.02486179       0.00000000
Si      -0.05165559      -0.96785406       2.22618341       0.00000000
Si       1.49240835       1.76257800      -0.79986335       0.00000000
Si      -2.30913845       0.92761776      -0.20119752       0.00000000
Si      -0.10686240       0.98785818       3.58994800       0.00000000
Si       2.74897008      -1.36886499      -2.27777518       0.00000000
Si       3.48146622       0.70690455      -1.47499743       0.00000000
Si      -0.65627523      -2.76438042      -2.63798084       0.00000000
Si      -1.56773331      -2.90763468       2.21848107       0.00000000
Si       0.93493197       2.27258532      -3.17318914       0.00000000
