10
Lattice="16.28999089631971 0.0 0.0 0.0 16.28999089631971 0.0 0.0 0.0 34.69518985606464" Properties=species:S:1:pos:R:3:initial_magmoms:R:1 pbc="T T T"
Si      -1.35922131       1.35439784       1.36348703       0.00000000
Si       1.35584928      -1.36291047       1.36272373       0.00000000
Si      -1.35249354      -1.36271619      -1.38701038       0.00000000
Si       1.35527913       1.35118871      -1.39586460       0.00000000
Si      -2.71149168       2.71350512       0.00232458       0.00000000
Si       2.72013678       2.71067066       0.00128372       0.00000000
Si       2.71707426      -2.71441152       0.00683496       0.00000000
Si      -2.71546318      -2.71698534      -0.00378178       0.00000000
Si      -0.00043983       2.71291868       2.72041666       0.00000000
Si      -2.71492724      -0.00221218       2.72013910       0.00000000
