10
Lattice="16.28999089631971 0.0 0.0 0.0 16.28999089631971 0.0 0.0 0.0 34.69518985606464" Properties=species:S:1:pos:R:3:initial_magmoms:R:1 pbc="T T T"
Si      -1.65485453      -0.99043200      -1.43447343       0.00000000
Si       1.08291522       1.84603167      -1.15684236       0.00000000
Si      -1.41240474       0.06889041       2.04004361       0.00000000
Si       2.09129880      -1.61284032      -0.00020817       0.00000000
Si      -0.15924289      -2.19495044      -2.75396693       0.00000000
Si       2.54171730       0.56886309      -2.72628015       0.00000000
Si      -3.25976162      -2.07107313      -0.04163425       0.00000000
Si       1.20947223      -3.52483739      -1.21360372       0.00000000
Si      -1.85316899      -2.23561354       2.73467639       0.00000000
Si      -2.88659030       0.54665982      -2.74959533       0.00000000
