10
Lattice="16.28999089631971 0.0 0.0 0.0 16.28999089631971 0.0 0.0 0.0 34.69518985606464" Properties=species:S:1:pos:R:3:initial_magmoms:R:1 pbc="T T T"
Si      -1.35637056       1.34991972      -1.36161349       0.00000000
Si       1.35728280       1.36181142       1.35672146       0.00000000
Si       1.35984033      -1.36532029      -1.36237678       0.00000000
Si      -1.36443411      -1.38480964       1.36039915       0.00000000
Si       2.41924419      -0.28219167       2.67805381       0.00000000
Si      -2.63637360       0.02529837       2.77964138       0.00000000
Si      -2.71454931       2.70655092       0.00287970       0.00000000
Si       0.00278559       2.70850572      -2.71871660       0.00000000
Si       2.72492604       2.70259245      -0.00850033       0.00000000
Si      -2.71306692      -2.71671031      -0.00398995       0.00000000
