10
Lattice="16.28999089631971 0.0 0.0 0.0 16.28999089631971 0.0 0.0 0.0 34.69518985606464" Properties=species:S:1:pos:R:3:initial_magmoms:R:1 pbc="T T T"
Si       1.09224450      -1.66148878       1.30735018       0.00000000
Si      -1.96165809      -1.26523778      -0.52264863       0.00000000
Si      -0.14574663       1.68119316       1.82011068       0.00000000
Si       0.99052974       0.52180128      -2.29543504       0.00000000
Si       0.96995547      -0.75864159       3.52340258       0.00000000
Si       3.34171431      -1.77999038       0.41051372       0.00000000
Si       1.91027943       1.37916027       3.07201791       0.00000000
Si      -1.35874890      -3.55870430      -0.84399566       0.00000000
Si      -2.52270198      -0.68071023      -2.91970594       0.00000000
Si      -0.21279627       3.82106385       0.92289257       0.00000000
