10
Lattice="16.28999089631971 0.0 0.0 0.0 16.28999089631971 0.0 0.0 0.0 34.69518985606464" Properties=species:S:1:pos:R:3:initial_magmoms:R:1 pbc="T T T"
Si       1.33729497       1.35026181      -1.38209060       0.00000000
Si       1.35120663      -1.35791811       1.36268904       0.00000000
Si      -1.36423863       1.35821133       1.36102367       0.00000000
Si      -1.36485765      -1.35948195      -1.39714832       0.00000000
Si       2.70980892      -2.71031554       0.00503081       0.00000000
Si       2.71059084       0.00149868       2.71857782       0.00000000
Si       2.71221984       2.71723716       0.00215110       0.00000000
Si      -2.72013678      -2.71067066      -0.00128372       0.00000000
Si      -0.00462636      -2.71358820       2.71899416       0.00000000
Si      -0.00508248       2.71722087       2.71878599       0.00000000
