10
Lattice="16.28999089631971 0.0 0.0 0.0 16.28999089631971 0.0 0.0 0.0 34.69518985606464" Properties=species:S:1:pos:R:3:initial_magmoms:R:1 pbc="T T T"
Si      -1.17859779       1.45541376       1.48258527       0.00000000
Si       1.71408267       0.93919995      -1.40050824       0.00000000
Si       1.50897528      -1.25937990       1.45259126       0.00000000
Si      -2.01155436      -0.71052093      -1.44672226       0.00000000
Si      -2.69120574      -2.55637341       0.04007644       0.00000000
Si      -1.49938047       1.96947729      -2.76739540       0.00000000
Si       0.60035166       1.17796248      -3.52545103       0.00000000
Si      -2.72764647       2.60568324       0.18531752       0.00000000
Si      -2.54857050       0.10759545       2.83912285       0.00000000
Si       2.74647771       2.67297723      -0.02949440       0.00000000
