10
Lattice="16.28999089631971 0.0 0.0 0.0 16.28999089631971 0.0 0.0 0.0 34.69518985606464" Properties=species:S:1:pos:R:3:initial_magmoms:R:1 pbc="T T T"
Si      -1.35545832       1.35742941       1.35706841       0.00000000
Si       1.35633798       1.35596331      -1.35810927       0.00000000
Si       1.35773892      -1.35754344       1.35751945       0.00000000
Si      -1.35878148      -1.35852084      -1.35692963       0.00000000
Si      -2.71387979       2.71459818      -0.00031226       0.00000000
Si       2.71397916      -0.00159642       2.71486543       0.00000000
Si      -2.71105185       0.00058644      -2.71809208       0.00000000
Si      -2.71448741      -2.71513086      -0.00027756       0.00000000
Si       0.00032580       2.71498914      -2.71469195       0.00000000
Si      -2.71329335      -0.00097740       2.71653080       0.00000000
