10
Lattice="16.28999089631971 0.0 0.0 0.0 16.28999089631971 0.0 0.0 0.0 34.69518985606464" Properties=species:S:1:pos:R:3:initial_magmoms:R:1 pbc="T T T"
Si       1.34237745       1.35446463      -1.38496336       0.00000000
Si      -1.36731744      -1.36897902      -1.37153632       0.00000000
Si      -1.44340803       1.19713581       1.49192869       0.00000000
Si       1.88447607      -0.83373849       1.26474446       0.00000000
Si      -2.24800371      -0.58233492       2.77474936       0.00000000
Si       2.70236439       2.68175754      -0.01779864       0.00000000
Si      -2.72046258       2.67758730      -0.01696596       0.00000000
Si       2.70451467      -2.71371852      -0.01769456       0.00000000
Si      -2.72647359      -2.70861975       0.01200454       0.00000000
Si       2.70536175      -0.01228266      -2.73585603       0.00000000
