10
Lattice="16.28999089631971 0.0 0.0 0.0 16.28999089631971 0.0 0.0 0.0 34.69518985606464" Properties=species:S:1:pos:R:3:initial_magmoms:R:1 pbc="T T T"
Si      -1.00587233       1.20070625      -1.78250107       0.00000000
Si       2.12543123       1.07643636       0.16591249       0.00000000
Si       0.73286104      -2.27279483      -0.03278697       0.00000000
Si      -1.51203521       0.82700877       1.67237848       0.00000000
Si       0.10984673       2.12789070       2.69911380       0.00000000
Si      -3.23558237       1.23558803      -1.05841205       0.00000000
Si       1.52506328       3.20917203       1.01386340       0.00000000
Si      -1.60580045      -0.46598948      -3.34503451       0.00000000
Si      -2.03777867      -1.05251093       3.02819786       0.00000000
Si       2.11808444      -2.44701638      -2.01894892       0.00000000
