10
Lattice="16.28999089631971 0.0 0.0 0.0 16.28999089631971 0.0 0.0 0.0 34.69518985606464" Properties=species:S:1:pos:R:3:initial_magmoms:R:1 pbc="T T T"
Si      -0.06704964       2.13987069      -0.89721811       0.00000000
Si       2.05602606      -0.30203289       1.25190724       0.00000000
Si      -1.77974766      -0.11139102       1.67581330       0.00000000
Si       0.14574663      -1.68119316      -1.82011068       0.00000000
Si       1.11570210      -2.43983475       1.70329191       0.00000000
Si      -0.93213009      -1.99428696       2.80781389       0.00000000
Si       1.23799113      -3.34268194      -0.51276050       0.00000000
Si       2.29552164       2.78296731      -0.99807708       0.00000000
Si      -0.45201492       3.68820261       0.83400344       0.00000000
Si      -3.79048752      -0.97621083       0.79143242       0.00000000
