10
Lattice="16.28999089631971 0.0 0.0 0.0 16.28999089631971 0.0 0.0 0.0 34.69518985606464" Properties=species:S:1:pos:R:3:initial_magmoms:R:1 pbc="T T T"
Si       1.42146540       1.74868263      -0.93076838       0.00000000
Si       0.26924112      -0.90292212       2.25990715       0.00000000
Si       0.07622091      -0.95145003      -2.31167240       0.00000000
Si      -2.39998941       0.71944785       0.18100491       0.00000000
Si      -2.05835553       0.57015000      -2.27045449       0.00000000
Si       2.55371814      -1.48250403       2.09493143       0.00000000
Si      -0.58073850       0.66137400       3.82424474       0.00000000
Si       3.37999581       0.81194247      -1.88603157       0.00000000
Si       3.94708329      -0.72449775      -0.01124125       0.00000000
Si       2.37628746       3.27839508       0.46973844       0.00000000
