10
Lattice="16.28999089631971 0.0 0.0 0.0 16.28999089631971 0.0 0.0 0.0 34.69518985606464" Properties=species:S:1:pos:R:3:initial_magmoms:R:1 pbc="T T T"
Si       0.73249614       2.07576954       0.80277775       0.00000000
Si       1.75984128      -1.55251845      -0.02668062       0.00000000
Si      -1.90563678      -0.64883070       1.25291340       0.00000000
Si      -0.78944598       0.54854946      -2.18666556       0.00000000
Si       1.66281804       3.07646424      -1.10708943       0.00000000
Si      -1.25656173       3.13144299       1.47791183       0.00000000
Si      -3.40524531      -1.39551543      -0.36020566       0.00000000
Si       2.63994111      -1.38461742       2.18812276       0.00000000
Si       3.17661516      -0.75385233      -1.78083570       0.00000000
Si       0.75303783      -3.59288982      -0.68405075       0.00000000
