10
Lattice="16.28999089631971 0.0 0.0 0.0 16.28999089631971 0.0 0.0 0.0 34.69518985606464" Properties=species:S:1:pos:R:3:initial_magmoms:R:1 pbc="T T T"
Si       2.28794679      -0.14415021      -0.47348552       0.00000000
Si      -0.60188292      -1.80382428       1.37854475       0.00000000
Si      -0.54781641       1.81323990       1.44758822       0.00000000
Si      -1.37552760       0.90606609      -1.83856853       0.00000000
Si      -1.43073441       2.86177833      -0.47480394       0.00000000
Si       2.64642453       2.18768184      -0.15206910       0.00000000
Si      -2.65184910      -0.72180990       2.06946515       0.00000000
Si      -2.89160532      -1.03371453      -1.84627086       0.00000000
Si       0.04802292      -3.60722502       0.02053956       0.00000000
Si      -1.15095366      -2.87860590      -1.97932699       0.00000000
