10
Lattice="16.28999089631971 0.0 0.0 0.0 16.28999089631971 0.0 0.0 0.0 34.69518985606464" Properties=species:S:1:pos:R:3:initial_magmoms:R:1 pbc="T T T"
Si       1.35946566      -1.35404109       1.35814397       0.00000000
Si      -1.35674523      -1.35731538      -1.35783171       0.00000000
Si       1.35765747       1.35789531      -1.35738067       0.00000000
Si      -1.35757602       1.36237804       1.35793579       0.00000000
Si      -0.00894321       2.69427870       2.72232490       0.00000000
Si       2.71070487      -2.71806795       0.00038165       0.00000000
Si       2.71533123       2.71376806      -0.00045104       0.00000000
Si      -2.71443528       0.00034209      -2.71486543       0.00000000
Si       0.00058644      -2.71469592      -2.71465726       0.00000000
Si       0.00109143       2.71476827      -2.71469195       0.00000000
