10
Lattice="16.28999089631971 0.0 0.0 0.0 16.28999089631971 0.0 0.0 0.0 34.69518985606464" Properties=species:S:1:pos:R:3:initial_magmoms:R:1 pbc="T T T"
Si      -1.35127179      -1.34135118      -1.37785084       0.00000000
Si       1.36516716       1.37327605      -1.37878762       0.00000000
Si       1.00352916      -1.74474045       1.29735796       0.00000000
Si      -1.32771645       1.36319607       1.52429932       0.00000000
Si       2.12457438      -0.45328554       2.95731555       0.00000000
Si      -2.69643157       2.69308302      -0.01606388       0.00000000
Si       2.71379997       2.70517671      -0.01439851       0.00000000
Si      -2.71370386      -2.71692765      -0.00218580       0.00000000
Si       0.00729792      -2.70396081      -2.73561316       0.00000000
Si      -2.71106814       0.00842193      -2.73755610       0.00000000
