10
Lattice="16.28999089631971 0.0 0.0 0.0 16.28999089631971 0.0 0.0 0.0 34.69518985606464" Properties=species:S:1:pos:R:3:initial_magmoms:R:1 pbc="T T T"
Si       1.58892660      -0.29221002       1.72698874       0.00000000
Si      -0.60290919       2.29346651       0.32134703       0.00000000
Si      -1.98446409      -1.39250178       0.42272643       0.00000000
Si       1.40651118      -0.85048461      -1.85608961       0.00000000
Si      -1.16395308       2.87799407      -2.07571028       0.00000000
Si       3.52966833      -1.15022061       0.62628322       0.00000000
Si       2.45099340       1.89721552       2.15134584       0.00000000
Si       2.57484627      -2.67993306      -0.77422359       0.00000000
Si       1.35874890       3.55870430       0.84399566       0.00000000
Si      -1.97711730       2.13095096       2.60758784       0.00000000
