10
Lattice="16.28999089631971 0.0 0.0 0.0 16.28999089631971 0.0 0.0 0.0 34.69518985606464" Properties=species:S:1:pos:R:3:initial_magmoms:R:1 pbc="T T T"
Si      -1.22840188       0.40904190      -1.94633185       0.00000000
Si       0.76423069       2.18694879       0.39215995       0.00000000
Si       2.00715769      -1.25457272      -0.35281558       0.00000000
Si      -1.71529369      -0.79382799       1.56589888       0.00000000
Si       1.66622428      -2.44606567       1.68858114       0.00000000
Si      -0.45670188       2.50874145       2.40795161       0.00000000
Si      -0.86752951       0.35903160       3.38181144       0.00000000
Si       0.18860073      -0.54007866      -3.51431244       0.00000000
Si       1.36885033      -2.25819636      -2.39816756       0.00000000
Si       1.27234837      -0.66907917       3.26565188       0.00000000
