10
Lattice="16.28999089631971 0.0 0.0 0.0 16.28999089631971 0.0 0.0 0.0 34.69518985606464" Properties=species:S:1:pos:R:3:initial_magmoms:R:1 pbc="T T T"
Si      -1.89459216      -0.25392852      -1.33524513       0.00000000
Si      -0.93032190      -1.00069470       1.90986718       0.00000000
Si       0.45418149       2.33866247       0.32596149       0.00000000
Si       1.78779492      -1.42467453      -0.75080433       0.00000000
Si      -3.47685615       0.56498607       0.21167547       0.00000000
Si       2.62295064       2.44982282      -0.53791452       0.00000000
Si       0.68334921      -0.66445281       3.52933547       0.00000000
Si      -1.66281804      -3.07646424       1.10708943       0.00000000
Si      -2.45226402      -2.52791478      -1.07957613       0.00000000
Si      -1.43597979       0.94711689      -3.33337692       0.00000000
