10
Lattice="16.28999089631971 0.0 0.0 0.0 16.28999089631971 0.0 0.0 0.0 34.69518985606464" Properties=species:S:1:pos:R:3:initial_magmoms:R:1 pbc="T T T"
Si      -1.57934808       0.01268991       1.74034639       0.00000000
Si       1.79080857      -1.21277421       1.00536308       0.00000000
Si       0.81287100       2.16466148      -0.61688082       0.00000000
Si      -0.83194659      -1.33172379      -1.89068073       0.00000000
Si       2.77078239      -2.05115535      -0.94634653       0.00000000
Si       1.15711128      -2.38739724      -2.56581481       0.00000000
Si      -3.45255147       1.12904265       0.80763508       0.00000000
Si       2.73316878       1.77216208      -1.97384515       0.00000000
Si      -0.91997775       3.38648642      -1.72244366       0.00000000
Si      -0.92957256       1.35906071       3.61447751       0.00000000
