10
Lattice="16.28999089631971 0.0 0.0 0.0 16.28999089631971 0.0 0.0 0.0 34.69518985606464" Properties=species:S:1:pos:R:3:initial_magmoms:R:1 pbc="T T T"
Si       1.35179307       1.35005167      -1.36026037       0.00000000
Si      -1.35860229       1.35239743       1.35765823       0.00000000
Si       1.35648459      -1.36045657       1.35790110       0.00000000
Si      -1.36909305      -1.36386952      -1.35587143       0.00000000
Si       2.52465678      -0.13446906      -2.77243519       0.00000000
Si      -2.70980892       2.71031554      -0.00503081       0.00000000
Si       0.00078192       2.71181422       2.71354701       0.00000000
Si       2.71306692      -2.71290958      -0.00510020       0.00000000
Si       2.71450044       2.71150471      -0.00225519       0.00000000
Si      -2.71287144      -2.71476664       0.00052043       0.00000000
