10
Lattice="16.28999089631971 0.0 0.0 0.0 16.28999089631971 0.0 0.0 0.0 34.69518985606464" Properties=species:S:1:pos:R:3:initial_magmoms:R:1 pbc="T T T"
Si       1.34672688      -1.28475972       1.44491668       0.00000000
Si       1.75580136       1.00898631      -1.26116177       0.00000000
Si      -1.37758014       1.42576596       1.41805565       0.00000000
Si      -0.84999591      -1.87237260      -1.32412327       0.00000000
Si       3.20320044      -0.98171685      -1.44833212       0.00000000
Si       2.51959059      -2.76928045       0.03274187       0.00000000
Si       2.69307909       2.74665690       0.02922724       0.00000000
Si      -0.00506619      -2.63481139       2.80517706       0.00000000
Si      -1.13927373      -0.94561821      -3.57636278       0.00000000
Si       2.70943425       0.07669332       2.80292187       0.00000000
