10
Lattice="16.28999089631971 0.0 0.0 0.0 16.28999089631971 0.0 0.0 0.0 34.69518985606464" Properties=species:S:1:pos:R:3:initial_magmoms:R:1 pbc="T T T"
Si       1.07292456       1.57209903       1.33812483       0.00000000
Si      -1.06196139       1.64400309      -1.32133235       0.00000000
Si       1.63058013      -1.08048149      -1.33285116       0.00000000
Si      -1.70673588      -1.07848271       1.34995590       0.00000000
Si      -1.58731389       2.33469909       2.07723687       0.00000000
Si      -2.41924419       0.28219167      -2.67805381       0.00000000
Si       0.29919843      -2.43420442      -2.68076004       0.00000000
Si       2.71321353      -2.53575746       0.09097084       0.00000000
Si       2.17448694       0.37605465       3.14893719       0.00000000
Si       2.79028152       2.78472663       0.05880838       0.00000000
