10
Lattice="16.28999089631971 0.0 0.0 0.0 16.28999089631971 0.0 0.0 0.0 34.69518985606464" Properties=species:S:1:pos:R:3:initial_magmoms:R:1 pbc="T T T"
Si      -1.35464382      -1.35666378       1.35651329       0.00000000
Si      -1.35301482       1.35907470      -1.35991342       0.00000000
Si       1.35913986       1.35884664       1.35633982       0.00000000
Si       1.35907470      -1.35697329      -1.35928891       0.00000000
Si       0.00286704      -2.71295289       2.71399805       0.00000000
Si      -2.71267596       0.00107514       2.71483073       0.00000000
Si      -2.71432125       2.71397916      -0.00076329       0.00000000
Si       0.00262269       2.71572219       2.71431030       0.00000000
Si      -2.71402803      -2.71608057       0.00062451       0.00000000
Si       2.71718829      -0.00009774       2.71330414       0.00000000
