10
Lattice="16.28999089631971 0.0 0.0 0.0 16.28999089631971 0.0 0.0 0.0 34.69518985606464" Properties=species:S:1:pos:R:3:initial_magmoms:R:1 pbc="T T T"
Si       1.03861782       1.80452475      -1.07235953       0.00000000
Si      -0.79951320      -1.78862571      -1.31331776       0.00000000
Si      -1.48309047       0.48894435       1.78562364       0.00000000
Si       0.63218232      -0.45680418       2.58569516       0.00000000
Si       2.88240147      -0.20020410       1.51701333       0.00000000
Si       0.57594924       1.17232614      -3.34205073       0.00000000
Si       0.10884978       3.60295704       0.26489792       0.00000000
Si      -1.09419930      -0.59934168      -3.42944796       0.00000000
Si       1.86072525      -2.55122577      -2.05242980       0.00000000
Si       0.70890822      -3.72459447       0.68845704       0.00000000
