10
Lattice="16.28999089631971 0.0 0.0 0.0 16.28999089631971 0.0 0.0 0.0 34.69518985606464" Properties=species:S:1:pos:R:3:initial_magmoms:R:1 pbc="T T T"
Si       0.27748386       0.79216641       2.19905175       0.00000000
Si      -0.30020841      -2.32805277       0.24619720       0.00000000
Si      -2.11527279       0.94574853      -0.80007153       0.00000000
Si       2.25021915       0.25660008      -1.06868184       0.00000000
Si      -0.63218232       0.45680418      -2.58569516       0.00000000
Si       2.04752268      -0.65394576       2.72121465       0.00000000
Si      -2.35476837      -2.13925167       1.44991279       0.00000000
Si       3.18251214      -1.28417328       0.71204978       0.00000000
Si      -1.74687444      -0.33052410       3.03603898       0.00000000
Si       0.07672590      -3.26779029      -1.89723813       0.00000000
