10
Lattice="16.28999089631971 0.0 0.0 0.0 16.28999089631971 0.0 0.0 0.0 34.69518985606464" Properties=species:S:1:pos:R:3:initial_magmoms:R:1 pbc="T T T"
Si       0.79781904      -2.22840684      -0.05523477       0.00000000
Si      -1.79159049      -0.03114648       1.65194300       0.00000000
Si      -0.57555828       0.80790255      -2.26243990       0.00000000
Si       1.98073368       1.28345652       0.79254266       0.00000000
Si       2.51372619      -1.63940931      -1.61842743       0.00000000
Si       0.74505573       2.98962225       1.76043492       0.00000000
Si      -1.21757976       2.04519321       2.67912936       0.00000000
Si       1.44880002       1.93059306      -3.09942713       0.00000000
Si       3.06610380       0.00801468       2.51325157       0.00000000
Si      -3.92360940      -0.10332747       0.63620605       0.00000000
