10
Lattice="16.28999089631971 0.0 0.0 0.0 16.28999089631971 0.0 0.0 0.0 34.69518985606464" Properties=species:S:1:pos:R:3:initial_magmoms:R:1 pbc="T T T"
Si      -1.46057769       1.78263099      -0.16827176       0.00000000
Si       0.75336363      -0.12116502       2.23475312       0.00000000
Si      -1.16680383      -2.01399786      -0.40239504       0.00000000
Si       1.92863826       0.25317918      -1.36484014       0.00000000
Si       1.05687891      -2.47098123       2.53989749       0.00000000
Si       0.02870298      -3.67526835       0.76704169       0.00000000
Si      -0.20953827       3.70533969      -0.69029588       0.00000000
Si       3.08829078       0.26150337       2.20609488       0.00000000
Si       3.66935508       1.01657745       0.05679606       0.00000000
Si      -3.07424880       1.44638910      -1.78774005       0.00000000
