10
Lattice="16.28999089631971 0.0 0.0 0.0 16.28999089631971 0.0 0.0 0.0 34.69518985606464" Properties=species:S:1:pos:R:3:initial_magmoms:R:1 pbc="T T T"
Si       1.81433133      -1.34148150      -0.71177222       0.00000000
Si      -1.11874833      -1.61648928       1.41837485       0.00000000
Si      -1.33288038       0.87884550      -1.89637075       0.00000000
Si       1.91925522       1.23090498       1.56235997       0.00000000
Si       0.60875730      -3.21663969      -1.50285768       0.00000000
Si      -0.97440264       3.21067755      -1.57495433       0.00000000
Si      -1.49898951      -3.39701886      -0.40517065       0.00000000
Si       2.66789475      -0.31354992      -2.63499706       0.00000000
Si      -3.21848046      -0.82497447       2.17643048       0.00000000
Si       1.36397799       3.49635528      -1.37986317       0.00000000
