10
Lattice="16.28999089631971 0.0 0.0 0.0 16.28999089631971 0.0 0.0 0.0 34.69518985606464" Properties=species:S:1:pos:R:3:initial_magmoms:R:1 pbc="T T T"
Si       1.34210052       1.35567009      -1.36518709       0.00000000
Si       1.35250983      -1.35878148       1.36161349       0.00000000
Si      -1.36260963       1.35812988       1.36202983       0.00000000
Si      -1.37137365      -1.37138994      -1.38438395       0.00000000
Si      -0.24992118       2.53140084      -2.70965421       0.00000000
Si       2.71006956      -2.71560816      -0.00093677       0.00000000
Si       2.70936909       2.71997388      -0.00024287       0.00000000
Si      -2.71573848      -2.71440270       0.00183885       0.00000000
Si       2.71160082       0.00058644       2.71857782       0.00000000
Si      -0.00360009      -2.71507059       2.71871660       0.00000000
