10
Lattice="16.28999089631971 0.0 0.0 0.0 16.28999089631971 0.0 0.0 0.0 34.69518985606464" Properties=species:S:1:pos:R:3:initial_magmoms:R:1 pbc="T T T"
Si      -1.20945105       0.14118543      -2.05125016       0.00000000
Si      -0.65417382      -2.12426487       0.89097297       0.00000000
Si       0.51828264       2.18092149       1.25388486       0.00000000
Si       2.52180603      -0.50088492       0.53045505       0.00000000
Si       3.02681232       0.12771360      -1.71089016       0.00000000
Si       2.20965705       0.87011406       2.63732164       0.00000000
Si       0.87869889       3.56860536      -0.78463216       0.00000000
Si      -0.20904957      -1.31890356      -3.61152842       0.00000000
Si       0.19207539      -2.33582310       3.14668794       0.00000000
Si      -1.38158748       2.26558062      -3.07666707       0.00000000
