10
Lattice="16.28999089631971 0.0 0.0 0.0 16.28999089631971 0.0 0.0 0.0 34.69518985606464" Properties=species:S:1:pos:R:3:initial_magmoms:R:1 pbc="T T T"
Si       0.36041625       1.38768387      -2.03851702       0.00000000
Si       1.69137441      -1.31080743       1.38343677       0.00000000
Si      -1.10498328       1.41786582       1.82765727       0.00000000
Si      -0.51828264      -2.18092149      -1.25388486       0.00000000
Si       2.00352339      -2.68180641      -0.72342981       0.00000000
Si      -3.13215975       1.90338617      -0.83792400       0.00000000
Si      -2.17554579      -0.26199207       3.14375515       0.00000000
Si      -1.88670780       1.89083799      -2.84063556       0.00000000
Si       2.37465846       0.37950813      -3.10272317       0.00000000
Si       0.59533434       2.50502148       3.08583150       0.00000000
