10
Lattice="16.28999089631971 0.0 0.0 0.0 16.28999089631971 0.0 0.0 0.0 34.69518985606464" Properties=species:S:1:pos:R:3:initial_magmoms:R:1 pbc="T T T"
Si      -2.22971004       0.03488178       0.72408902       0.00000000
Si      -0.59992812      -1.66669573      -1.56253344       0.00000000
Si       1.00587233      -1.20070625       1.78250107       0.00000000
Si       0.44076425       2.30450395      -0.69463278       0.00000000
Si      -1.40659263       0.16454040      -2.77631064       0.00000000
Si      -0.50616288      -0.37369749       3.45487955       0.00000000
Si       3.13130357      -0.12426989       1.94841356       0.00000000
Si      -3.22766802       1.53142942      -1.02038610       0.00000000
Si      -2.31151842       1.13726029       2.71594098       0.00000000
Si       1.46061420       3.39795391       1.16138743       0.00000000
