10
Lattice="16.28999089631971 0.0 0.0 0.0 16.28999089631971 0.0 0.0 0.0 34.69518985606464" Properties=species:S:1:pos:R:3:initial_magmoms:R:1 pbc="T T T"
Si       1.35812988       1.35606105      -1.35682555       0.00000000
Si      -1.35651717       1.35687555       1.35797049       0.00000000
Si       1.35804843      -1.35894438       1.35696433       0.00000000
Si      -1.35913986      -1.35884664      -1.35633982       0.00000000
Si      -0.00156384      -2.71518462       2.71285311       0.00000000
Si      -2.71215468       0.00022806      -2.71625324       0.00000000
Si       2.71375110      -0.00175932       2.71476134       0.00000000
Si      -2.71446786       2.71471221       0.00048573       0.00000000
Si      -2.71378368      -2.71551042       0.00017348       0.00000000
Si       2.71562445      -2.71538010       0.00024287       0.00000000
