10
Lattice="16.28999089631971 0.0 0.0 0.0 16.28999089631971 0.0 0.0 0.0 34.69518985606464" Properties=species:S:1:pos:R:3:initial_magmoms:R:1 pbc="T T T"
Si      -1.15261524       1.56211326      -1.36095428       0.00000000
Si       1.57845213      -1.15782804      -1.37375681       0.00000000
Si       0.97054191       1.19487150       1.84342586       0.00000000
Si      -1.71735696      -1.21262760       1.27931645       0.00000000
Si       0.78397254      -0.51877134       3.53002937       0.00000000
Si      -2.48459967       0.20005749      -2.74536252       0.00000000
Si       0.22340106      -2.50486443      -2.74012354       0.00000000
Si       2.81018790      -2.69491986      -0.05863490       0.00000000
Si      -3.00213297       2.51092431      -0.01030448       0.00000000
Si      -2.79028152      -2.78472663      -0.05880838       0.00000000
