10
Lattice="16.28999089631971 0.0 0.0 0.0 16.28999089631971 0.0 0.0 0.0 34.69518985606464" Properties=species:S:1:pos:R:3:initial_magmoms:R:1 pbc="T T T"
Si       1.27334043      -1.33605693      -1.44148880       0.00000000
Si       1.35863487       1.33245684       1.36726881       0.00000000
Si      -1.35891180      -1.38411243       1.36032976       0.00000000
Si      -1.34319195       1.39356063      -1.42142803       0.00000000
Si      -0.68737284      -2.20382523      -2.50396123       0.00000000
Si      -2.46956400      -0.39185595      -2.59933975       0.00000000
Si       2.70195112       2.67374286      -0.03132630       0.00000000
Si      -0.00024435       2.68675857       2.72222081       0.00000000
Si      -2.72688084       2.68716582      -0.00392056       0.00000000
Si       2.71241426      -0.02645496       2.72343514       0.00000000
