10
Lattice="16.28999089631971 0.0 0.0 0.0 16.28999089631971 0.0 0.0 0.0 34.69518985606464" Properties=species:S:1:pos:R:3:initial_magmoms:R:1 pbc="T T T"
Si      -2.38599630      -0.48703842      -0.18714596       0.00000000
Si       2.16251379       0.51355854       1.16801422       0.00000000
Si       1.12401000      -2.43528984      -0.60310682       0.00000000
Si       0.21931227       1.56761928      -2.31486436       0.00000000
Si       0.72964539      -0.47166066       2.78397829       0.00000000
Si       3.21924529      -1.19431764      -0.16462877       0.00000000
Si      -0.54221265      -2.49176727       2.40222690       0.00000000
Si      -0.01782126       3.56003289       0.74886140       0.00000000
Si       1.61543043       3.05528724      -1.20225839       0.00000000
Si       2.16463149       2.83955877       1.09765233       0.00000000
