10
Lattice="16.28999089631971 0.0 0.0 0.0 16.28999089631971 0.0 0.0 0.0 34.69518985606464" Properties=species:S:1:pos:R:3:initial_magmoms:R:1 pbc="T T T"
Si      -0.95265549       2.16492471       0.33342096       0.00000000
Si       0.20839797      -0.99843039       2.17618761       0.00000000
Si       1.87159738       0.31597713      -1.52929543       0.00000000
Si      -1.71395235      -1.52827893      -0.85919216       0.00000000
Si       0.93014271      -3.14885700       1.60042061       0.00000000
Si      -2.88515448       1.52933778       1.71311065       0.00000000
Si       0.83012211      -0.04263093      -3.61662861       0.00000000
Si      -2.98843308      -0.20352726      -2.43827522       0.00000000
Si      -0.60486399      -3.35385036      -1.93030266       0.00000000
Si      -1.91314647      -1.92490785       2.88161060       0.00000000
