10
Lattice="16.28999089631971 0.0 0.0 0.0 16.28999089631971 0.0 0.0 0.0 34.69518985606464" Properties=species:S:1:pos:R:3:initial_magmoms:R:1 pbc="T T T"
Si      -0.19367181      -2.32836228      -0.11168388       0.00000000
Si      -0.38636622       0.66378492       2.24845773       0.00000000
Si      -1.68119316       0.38116971      -1.65659216       0.00000000
Si       1.98956286       1.16463726      -0.75909648       0.00000000
Si       0.35978094       2.86621477       1.52752598       0.00000000
Si      -0.09945045       1.45095030      -3.27491550       0.00000000
Si       1.98878094      -3.04883640       0.23710706       0.00000000
Si       1.18289835       2.99587339      -1.97287368       0.00000000
Si       1.43957988      -2.83310793      -2.06280367       0.00000000
Si      -2.67722892       0.75896739       2.60200191       0.00000000
