10
Lattice="16.28999089631971 0.0 0.0 0.0 16.28999089631971 0.0 0.0 0.0 34.69518985606464" Properties=species:S:1:pos:R:3:initial_magmoms:R:1 pbc="T T T"
Si       1.06337929       2.14498575       0.48708604       0.00000000
Si       0.07840377      -0.22670793      -2.46079241       0.00000000
Si       0.28442863      -1.75743036       1.81095114       0.00000000
Si      -2.64880287      -0.00123804      -0.37939211       0.00000000
Si      -1.94971752      -2.26903410      -0.50564798       0.00000000
Si      -2.14379658       0.62736048      -2.62073733       0.00000000
Si       2.75837660       1.16670609       1.87642100       0.00000000
Si       2.27327669      -2.55433716      -0.93465424       0.00000000
Si       3.43667591      -0.75913029       0.49600271       0.00000000
Si       1.51461229      -0.24454548       3.33771525       0.00000000
