10
Lattice="16.28999089631971 0.0 0.0 0.0 16.28999089631971 0.0 0.0 0.0 34.69518985606464" Properties=species:S:1:pos:R:3:initial_magmoms:R:1 pbc="T T T"
Si      -2.14582666       0.90968247      -0.18752761       0.00000000
Si       1.15091326       1.37829690       1.55889045       0.00000000
Si       1.22093257      -0.32179266      -2.01579166       0.00000000
Si      -0.41082763      -2.14970985       0.97385983       0.00000000
Si      -2.16819283       1.27378026       2.16893631       0.00000000
Si       0.45670188      -2.50874145      -2.40795161       0.00000000
Si       3.37153837       0.01539405      -1.17772888       0.00000000
Si      -1.25859181      -3.30256944      -0.84205273       0.00000000
Si      -0.14536340       1.13867100       3.48135199       0.00000000
Si       1.72905025      -3.17782062       0.85770027       0.00000000
