10
Lattice="16.28999089631971 0.0 0.0 0.0 16.28999089631971 0.0 0.0 0.0 34.69518985606464" Properties=species:S:1:pos:R:3:initial_magmoms:R:1 pbc="T T T"
Si       0.97655292       1.58804694       1.47330920       0.00000000
Si      -1.82611389       0.75039885      -1.35581939       0.00000000
Si       1.69264503      -1.72815723      -0.15873058       0.00000000
Si      -1.73449730      -1.13125905       1.31733689       0.00000000
Si       2.20481892       0.95184099      -1.47940372       0.00000000
Si       2.04294519       2.91271716      -0.11910865       0.00000000
Si      -0.22415040      -2.25908091       2.77675270       0.00000000
Si      -0.84937689       2.07800127      -3.00925428       0.00000000
Si       2.52560160       0.43777746       2.77057695       0.00000000
Si       1.01299365      -3.57400971       1.32806812       0.00000000
