10
Lattice="16.28999089631971 0.0 0.0 0.0 16.28999089631971 0.0 0.0 0.0 34.69518985606464" Properties=species:S:1:pos:R:3:initial_magmoms:R:1 pbc="T T T"
Si      -1.35474050      -1.35632169       1.35616634       0.00000000
Si      -1.35377939       1.35891180      -1.35616634       0.00000000
Si       1.35996260       1.35799956       1.35651329       0.00000000
Si       1.36183269      -1.35456237      -1.36078080       0.00000000
Si      -2.71151831       0.00148239       2.71424091       0.00000000
Si      -2.71265861       2.71321353      -0.00121433       0.00000000
Si       2.71560011       2.71145421      -0.00041634       0.00000000
Si       0.00231508      -2.71401174       2.71385927       0.00000000
Si      -2.71239797      -2.71577106      -0.00076329       0.00000000
Si       0.00181424       2.71581993       2.71333884       0.00000000
