10
Lattice="16.28999089631971 0.0 0.0 0.0 16.28999089631971 0.0 0.0 0.0 34.69518985606464" Properties=species:S:1:pos:R:3:initial_magmoms:R:1 pbc="T T T"
Si       1.74526173      -0.90360630      -1.28282067       0.00000000
Si       1.54781064       1.08201438       1.43402239       0.00000000
Si      -0.97898176       1.82635335      -1.26765886       0.00000000
Si      -1.83137393      -1.80024048       0.10210800       0.00000000
Si       0.39654747      -2.24169948      -2.65043642       0.00000000
Si      -2.33624208       0.49306572      -2.64537092       0.00000000
Si       3.02231628      -2.38405779       0.22607398       0.00000000
Si       2.73825126       2.79854055       0.03188490       0.00000000
Si      -0.96436800      -3.58375113      -1.25686865       0.00000000
Si      -2.36754692       3.12784290       0.20560381       0.00000000
