10
Lattice="16.28999089631971 0.0 0.0 0.0 16.28999089631971 0.0 0.0 0.0 34.529650657227435" Properties=species:S:1:pos:R:3:initial_magmoms:R:1 pbc="T T T"
Si       1.44710586      -1.27842291       1.42404157       0.00000000
Si      -1.66573395      -0.87166161      -1.49161756       0.00000000
Si      -1.25486757       1.44586782       1.45100579       0.00000000
Si       1.34416935       1.19762451      -1.62414243       0.00000000
Si      -0.47224710       0.97191027      -3.26188468       0.00000000
Si      -3.44005704       0.73811619      -1.20145158       0.00000000
Si      -2.62379772       2.66424579      -0.01396035       0.00000000
Si       2.65802301       2.63301786      -0.06113823       0.00000000
Si      -2.66276340      -2.68757307      -0.02954359       0.00000000
Si       0.08293239      -2.62181034       2.81445470       0.00000000
