10
Lattice="16.28999089631971 0.0 0.0 0.0 16.28999089631971 0.0 0.0 0.0 34.529650657227435" Properties=species:S:1:pos:R:3:initial_magmoms:R:1 pbc="T T T"
Si       0.51733782      -2.26369098      -0.63572575       0.00000000
Si       2.00536416       1.30984632       0.24975310       0.00000000
Si      -0.64511658       0.39470670      -2.30727255       0.00000000
Si      -1.81367973       0.43367238       1.61484907       0.00000000
Si       0.85871106      -3.09176055       1.50121193       0.00000000
Si       1.76130738       2.72497491      -1.59637570       0.00000000
Si      -1.56634866      -2.93615847      -1.46626790       0.00000000
Si       1.45169964       0.91158840      -3.23964269       0.00000000
Si      -3.85574526      -0.34358868       0.62557403       0.00000000
Si       1.77645708       2.91845124       1.98718251       0.00000000
