10
Lattice="16.28999089631971 0.0 0.0 0.0 16.28999089631971 0.0 0.0 0.0 34.529650657227435" Properties=species:S:1:pos:R:3:initial_magmoms:R:1 pbc="T T T"
Si       0.32835753      -2.19076065      -0.72270599       0.00000000
Si      -0.67675176       0.80591517      -2.15717207       0.00000000
Si      -1.25092539      -0.96870114       1.81377450       0.00000000
Si       1.83760974       0.93452472       1.26437292       0.00000000
Si       2.25101736      -1.22168484       2.34090444       0.00000000
Si       1.60897959      -3.08702016       1.02988194       0.00000000
Si      -1.19360088       3.07255464      -1.83242053       0.00000000
Si      -1.96732701      -3.01052232      -1.13954817       0.00000000
Si       0.25620912      -1.07584047       3.62281844       0.00000000
Si      -3.23477046       0.17172918       2.13275959       0.00000000
