10
Lattice="16.28999089631971 0.0 0.0 0.0 16.28999089631971 0.0 0.0 0.0 34.529650657227435" Properties=species:S:1:pos:R:3:initial_magmoms:R:1 pbc="T T T"
Si       1.42218216      -0.70237593      -1.77119942       0.00000000
Si      -1.34416935      -1.19762451       1.62414243       0.00000000
Si      -1.81641645      -0.22571424      -1.63774225       0.00000000
Si       1.31385366       1.43539335       1.56300420       0.00000000
Si       1.58990400       1.56861297      -2.64987593       0.00000000
Si       2.69742852      -2.42802450      -0.11401697       0.00000000
Si      -3.00990330      -2.06928612       0.13252487       0.00000000
Si      -2.28061629       2.07417312      -2.10313314       0.00000000
Si       0.10293651      -2.47604742       3.04818400       0.00000000
Si      -2.59903692       0.24824331       3.07514822       0.00000000
