10
Lattice="16.28999089631971 0.0 0.0 0.0 16.28999089631971 0.0 0.0 0.0 34.529650657227435" Properties=species:S:1:pos:R:3:initial_magmoms:R:1 pbc="T T T"
Si      -0.46419984       2.29988736      -0.46539089       0.00000000
Si      -0.24278616      -1.64424744      -1.73335490       0.00000000
Si       1.81641645       0.22571424       1.63774225       0.00000000
Si      -1.19348685      -1.84357188       1.77026712       0.00000000
Si       3.23859861      -0.47666169      -0.13345717       0.00000000
Si       0.47224710      -0.97191027       3.26188468       0.00000000
Si       0.36551502      -3.54584430      -0.31401282       0.00000000
Si      -2.96780994      -0.23379408       2.06043310       0.00000000
Si      -1.04392836       3.18767607       1.74702865       0.00000000
Si      -2.46884724      -1.47962070      -2.46852611       0.00000000
