10
Lattice="16.28999089631971 0.0 0.0 0.0 16.28999089631971 0.0 0.0 0.0 34.529650657227435" Properties=species:S:1:pos:R:3:initial_magmoms:R:1 pbc="T T T"
Si      -1.34625447      -1.32437700       1.37817236       0.00000000
Si      -1.39435884       1.21288824      -1.49881557       0.00000000
Si       1.36638891       1.38960216       1.36795158       0.00000000
Si       1.22484510      -1.50239412      -1.50101166       0.00000000
Si       2.28499830       0.35603424      -2.60854668       0.00000000
Si       0.51080553       2.10847986      -2.82248081       0.00000000
Si      -2.68804548      -2.68954416       0.01113237       0.00000000
Si       2.72192868      -2.69131977      -0.01621513       0.00000000
Si       0.00654858      -2.68358202       2.73342737       0.00000000
Si      -2.69410536       2.74191651      -0.02022057       0.00000000
