10
Lattice="16.28999089631971 0.0 0.0 0.0 16.28999089631971 0.0 0.0 0.0 34.529650657227435" Properties=species:S:1:pos:R:3:initial_magmoms:R:1 pbc="T T T"
Si       1.35293337      -1.36016613      -1.35995105       0.00000000
Si      -1.36169739      -1.35180936       1.36226454       0.00000000
Si      -1.36207206       1.35648459      -1.36022729       0.00000000
Si       1.35436689       1.34216568       1.38722949       0.00000000
Si       2.71510317      -2.71062342       0.00100136       0.00000000
Si       2.71176372       2.71427238       0.00127760       0.00000000
Si       2.71223613      -0.00074934      -2.71751956       0.00000000
Si      -2.71580364       2.71625976       0.00148478       0.00000000
Si      -0.00360009       2.71511946      -2.71724332       0.00000000
Si      -0.00338832      -2.71551042      -2.71783032       0.00000000
