10
Lattice="16.28999089631971 0.0 0.0 0.0 16.28999089631971 0.0 0.0 0.0 34.529650657227435" Properties=species:S:1:pos:R:3:initial_magmoms:R:1 pbc="T T T"
Si      -1.35752715       1.35724783       1.35763756       0.00000000
Si       1.35752715      -1.35702216       1.35801739       0.00000000
Si       1.35760860       1.35728059      -1.35770662       0.00000000
Si      -1.35944937      -1.35881406      -1.35732680       0.00000000
Si       0.00200367       2.71302198       2.71513701       0.00000000
Si       2.71353933       0.00065160       2.71513701       0.00000000
Si      -2.71455745       2.71467216      -0.00006906       0.00000000
Si      -2.71487837      -2.71494027       0.00006906       0.00000000
Si       2.71557558       2.71509732       0.00051795       0.00000000
Si      -0.00094482      -2.71565703       2.71503342       0.00000000
