10
Lattice="16.28999089631971 0.0 0.0 0.0 16.28999089631971 0.0 0.0 0.0 34.529650657227435" Properties=species:S:1:pos:R:3:initial_magmoms:R:1 pbc="T T T"
Si      -1.35723393      -1.35742941      -1.35812098       0.00000000
Si       1.35847197       1.35863487      -1.35701603       0.00000000
Si      -1.35373158       1.35977517       1.36171206       0.00000000
Si       1.36207206      -1.35648459       1.36022729       0.00000000
Si      -2.71393355       0.00071676      -2.71496436       0.00000000
Si       0.00114030      -2.71415835      -2.71506795       0.00000000
Si      -2.71464379      -2.71575477      -0.00169195       0.00000000
Si       0.00094482       2.71565703      -2.71503342       0.00000000
Si       2.71448415       2.71630863       0.00010359       0.00000000
Si       0.00037467      -2.70829395       2.72249183       0.00000000
