10
Lattice="16.28999089631971 0.0 0.0 0.0 16.28999089631971 0.0 0.0 0.0 34.529650657227435" Properties=species:S:1:pos:R:3:initial_magmoms:R:1 pbc="T T T"
Si       1.39312080      -1.27881387       1.47852939       0.00000000
Si      -0.86734476      -1.87247034      -1.26981277       0.00000000
Si      -1.33408584       1.39979970       1.46646127       0.00000000
Si       0.99702945       1.81591146      -1.46207397       0.00000000
Si      -0.77729364       3.42568926      -1.17190799       0.00000000
Si       2.78226684      -2.51449345       0.06415958       0.00000000
Si       2.66276340       2.68757307       0.02954359       0.00000000
Si      -2.68187809      -2.68145617       0.07591348       0.00000000
Si      -2.73314109       2.69912268       0.04465032       0.00000000
Si       0.03157002      -2.64783850       2.84123591       0.00000000
