10
Lattice="16.28999089631971 0.0 0.0 0.0 16.28999089631971 0.0 0.0 0.0 34.529650657227435" Properties=species:S:1:pos:R:3:initial_magmoms:R:1 pbc="T T T"
Si       1.33336908       1.35997295       1.34033820       0.00000000
Si      -1.35423657       1.35464775      -1.35452989       0.00000000
Si       1.35729909      -1.35772263      -1.35452989       0.00000000
Si      -1.35070164      -1.35734796       1.39085511       0.00000000
Si       2.63463057      -0.01533162       2.69628381       0.00000000
Si      -2.71091664      -2.71425609       0.00707858       0.00000000
Si      -2.71376739      -0.00112640      -2.71202934       0.00000000
Si       0.00128691      -2.71539639      -2.71164951       0.00000000
Si       0.00244350       2.71437731      -2.71303070       0.00000000
Si       2.71624347      -0.00097042      -2.71237463       0.00000000
