10
Lattice="16.28999089631971 0.0 0.0 0.0 16.28999089631971 0.0 0.0 0.0 34.529650657227435" Properties=species:S:1:pos:R:3:initial_magmoms:R:1 pbc="T T T"
Si      -0.93537180      -1.70852778      -1.26775683       0.00000000
Si      -1.39646025      -0.39089484       1.87268212       0.00000000
Si       1.38165264       1.95566337      -0.03080047       0.00000000
Si       1.90063575      -1.39308822       0.45883025       0.00000000
Si       0.93499713      -1.04078439      -2.71244369       0.00000000
Si       2.41849485       1.03799880      -1.96059466       0.00000000
Si       0.37761849      -0.13545135       3.44077802       0.00000000
Si       2.52288117      -0.12435786       2.43199371       0.00000000
Si      -0.21080889       3.51410391      -0.63748677       0.00000000
Si      -2.37905676       1.72691919       2.08538489       0.00000000
