10
Lattice="16.28999089631971 0.0 0.0 0.0 16.28999089631971 0.0 0.0 0.0 34.529650657227435" Properties=species:S:1:pos:R:3:initial_magmoms:R:1 pbc="T T T"
Si       2.05473915       1.00822068      -0.46791156       0.00000000
Si       0.64319436      -2.21871429      -0.58879993       0.00000000
Si      -1.53950274       1.06251525      -1.48398163       0.00000000
Si      -0.48290076      -0.01599678       2.35513067       0.00000000
Si       1.98143415       1.40190111      -2.74113785       0.00000000
Si      -0.95547366      -2.37529377       2.64400589       0.00000000
Si       0.91298934      -3.25736469       1.53543083       0.00000000
Si       2.02489587       3.15882063       0.38548924       0.00000000
Si      -1.33224507      -3.32105859      -1.19897373       0.00000000
Si       1.58793291       0.71803062       3.37071732       0.00000000
