10
Lattice="16.28999089631971 0.0 0.0 0.0 16.28999089631971 0.0 0.0 0.0 34.529650657227435" Properties=species:S:1:pos:R:3:initial_magmoms:R:1 pbc="T T T"
Si       1.99589967      -1.12941828       0.38628342       0.00000000
Si       0.12698055       0.10746513      -2.32895718       0.00000000
Si       0.23763852       2.13703201       0.91641744       0.00000000
Si       1.43457885      -3.32768862      -0.48227590       0.00000000
Si       3.52976607      -0.54007866      -1.39258159       0.00000000
Si       1.98635373      -1.20757770      -3.09934865       0.00000000
Si      -1.94385312      -0.62656227      -3.34454383       0.00000000
Si      -1.12513401       2.44036647       2.86869045       0.00000000
Si       2.35888974      -1.40489847       2.83184729       0.00000000
Si       1.15090479       2.17272829      -3.11181386       0.00000000
