10
Lattice="16.28999089631971 0.0 0.0 0.0 16.28999089631971 0.0 0.0 0.0 34.529650657227435" Properties=species:S:1:pos:R:3:initial_magmoms:R:1 pbc="T T T"
Si      -1.35702216      -1.35558396      -1.35739586       0.00000000
Si       1.35817875       1.35966603      -1.35756850       0.00000000
Si      -1.35718506       1.36100181       1.35850081       0.00000000
Si       1.36357074      -1.35780638       1.35691244       0.00000000
Si       0.00135207      -2.71293890      -2.71437736       0.00000000
Si      -2.71393029       0.00210955      -2.71417018       0.00000000
Si      -2.71596654      -2.71233617       0.00044889       0.00000000
Si       2.71500543      -2.71404662      -0.00058700       0.00000000
Si       2.71591767       0.00142212      -2.71423924       0.00000000
Si       0.00061902       2.71694883      -2.71417018       0.00000000
