10
Lattice="16.28999089631971 0.0 0.0 0.0 16.28999089631971 0.0 0.0 0.0 34.529650657227435" Properties=species:S:1:pos:R:3:initial_magmoms:R:1 pbc="T T T"
Si      -1.01618649       0.77507168      -2.00765860       0.00000000
Si       0.45261765       1.82727536       1.52154991       0.00000000
Si       1.30219002      -2.04976811      -0.17623944       0.00000000
Si      -1.04011650      -3.10576736      -0.17627397       0.00000000
Si      -2.07695871      -2.18810279       1.75352023       0.00000000
Si       0.74207466       1.63982633      -3.37776137       0.00000000
Si       1.21375161       3.66481994       0.14108823       0.00000000
Si      -3.66942024      -0.62966226       1.14683393       0.00000000
Si      -1.55217636       2.20938989       2.84773094       0.00000000
Si       1.91337453       1.06262276       3.30345352       0.00000000
