10
Lattice="16.28999089631971 0.0 0.0 0.0 16.28999089631971 0.0 0.0 0.0 34.529650657227435" Properties=species:S:1:pos:R:3:initial_magmoms:R:1 pbc="T T T"
Si       1.01618649      -0.77507168       2.00765860       0.00000000
Si       1.75826115       0.86475465      -1.37010277       0.00000000
Si      -0.94820832      -1.77423527      -1.37500599       0.00000000
Si      -1.74493593       1.70603541       0.05386629       0.00000000
Si      -2.24946981      -0.39893070      -2.73095160       0.00000000
Si       0.50308407       2.31674751      -2.71306523       0.00000000
Si       3.26647080       2.00937150       0.04419798       0.00000000
Si      -1.93290624      -3.34273148       0.17910540       0.00000000
Si      -3.56933448       0.90463257      -1.28553961       0.00000000
Si      -0.90197730       3.60877257      -1.33716147       0.00000000
