10
Lattice="16.28999089631971 0.0 0.0 0.0 16.28999089631971 0.0 0.0 0.0 34.529650657227435" Properties=species:S:1:pos:R:3:initial_magmoms:R:1 pbc="T T T"
Si      -1.36417347      -1.34338743       1.39041313       0.00000000
Si       1.35260757       1.37241621       1.38509556       0.00000000
Si      -1.44710586       1.27842291      -1.42404157       0.00000000
Si       1.33283151      -1.39575978      -1.56616224       0.00000000
Si      -2.71674846      -2.68796403       0.02494423       0.00000000
Si       2.71376739      -2.70500337      -0.00947149       0.00000000
Si      -2.70197343       2.72429073       0.02696422       0.00000000
Si       2.70800073       2.72251512      -0.00038328       0.00000000
Si      -0.28707867      -2.48372001      -2.93081765       0.00000000
Si      -0.00622278      -2.69956251       2.74898299       0.00000000
