10
Lattice="16.28999089631971 0.0 0.0 0.0 16.28999089631971 0.0 0.0 0.0 34.529650657227435" Properties=species:S:1:pos:R:3:initial_magmoms:R:1 pbc="T T T"
Si       1.35677781      -1.35606105       1.36002011       0.00000000
Si      -1.35770634      -1.35725022      -1.35812098       0.00000000
Si       1.35759231       1.35909099      -1.35715415       0.00000000
Si      -1.35386190       1.36350558       1.36153942       0.00000000
Si      -2.71987614      -0.02059056       2.70177403       0.00000000
Si       0.01207089      -2.70969489       2.71316882       0.00000000
Si       0.00700470       2.70133812       2.72428737       0.00000000
Si       2.71366965      -2.71379997      -0.00082871       0.00000000
Si       0.00003258      -2.71378368      -2.71420471       0.00000000
Si      -2.71479366       0.00120546      -2.71427377       0.00000000
