10
Lattice="16.28999089631971 0.0 0.0 0.0 16.28999089631971 0.0 0.0 0.0 34.529650657227435" Properties=species:S:1:pos:R:3:initial_magmoms:R:1 pbc="T T T"
Si       1.80077805      -1.09625184       1.04804454       0.00000000
Si       0.50368680       2.29692258       0.14291830       0.00000000
Si      -1.54341234      -0.66749904      -1.70676706       0.00000000
Si      -1.53386640      -0.58933962       1.77886501       0.00000000
Si       2.30215167       0.97459812       2.49763462       0.00000000
Si       2.43278118      -2.44840329      -0.85153619       0.00000000
Si      -3.40278552       0.64754379      -0.93637559       0.00000000
Si      -2.09518722      -2.78760996       0.91030569       0.00000000
Si       0.00729792       3.07334863      -2.00123608       0.00000000
Si      -3.52976607       0.54007866       1.39258159       0.00000000
