10
Lattice="16.28999089631971 0.0 0.0 0.0 16.28999089631971 0.0 0.0 0.0 34.529650657227435" Properties=species:S:1:pos:R:3:initial_magmoms:R:1 pbc="T T T"
Si      -0.56705490      -2.24862273       0.18414673       0.00000000
Si       0.49218606       0.44841483      -2.24025046       0.00000000
Si       1.54341234       0.66749904       1.70676706       0.00000000
Si      -1.85937318       1.31504283       0.77039147       0.00000000
Si      -0.55177488      -2.12011092       2.61707275       0.00000000
Si      -0.83544894       3.38030599      -0.01246521       0.00000000
Si       0.00954594       0.07815942       3.48563206       0.00000000
Si       2.02981545       2.22829281      -2.10302955       0.00000000
Si      -1.39256694       1.60523289      -3.06823741       0.00000000
Si      -2.53431675      -2.66035248      -1.06489502       0.00000000
