10
Lattice="16.28999089631971 0.0 0.0 0.0 16.28999089631971 0.0 0.0 0.0 34.529650657227435" Properties=species:S:1:pos:R:3:initial_magmoms:R:1 pbc="T T T"
Si      -1.10284929      -1.38095217       1.64550248       0.00000000
Si       1.45893240      -1.50806304      -1.39831351       0.00000000
Si       1.54639341       1.29860852       1.59894958       0.00000000
Si      -1.94658984       1.23885843      -1.38481241       0.00000000
Si      -0.33953247      -0.18573858      -3.75302983       0.00000000
Si       1.98855288       0.11256799      -3.26605789       0.00000000
Si      -2.01409560      -3.34748097       0.32848075       0.00000000
Si       2.87927379      -2.75809248       0.11501833       0.00000000
Si      -2.51167365      -0.00017943       3.13241223       0.00000000
Si       2.70394452       2.20997375      -2.01149139       0.00000000
