10
Lattice="16.28999089631971 0.0 0.0 0.0 16.28999089631971 0.0 0.0 0.0 34.529650657227435" Properties=species:S:1:pos:R:3:initial_magmoms:R:1 pbc="T T T"
Si      -1.33371117      -1.35053042       1.37520626       0.00000000
Si       1.22127759      -1.48458083      -1.36449861       0.00000000
Si       1.38543192       1.35985095       1.36488189       0.00000000
Si      -1.34210052       1.29759057      -1.55594491       0.00000000
Si       2.29016223       0.27212693      -2.55174019       0.00000000
Si       0.56071809       2.11752003      -2.81674544       0.00000000
Si      -2.68192044      -2.69720843      -0.00082181       0.00000000
Si      -2.68569972       2.71417386      -0.02923627       0.00000000
Si      -2.68837128       0.00244850       2.72928727       0.00000000
Si       0.02404404      -2.70952367       2.72876932       0.00000000
