10
Lattice="16.28999089631971 0.0 0.0 0.0 16.28999089631971 0.0 0.0 0.0 34.529650657227435" Properties=species:S:1:pos:R:3:initial_magmoms:R:1 pbc="T T T"
Si       1.90281861       0.81992946      -1.26080052       0.00000000
Si       1.34210052      -1.29759057       1.55594491       0.00000000
Si      -1.34359920       1.41658329       1.52670864       0.00000000
Si      -1.54639341      -1.29860852      -1.59894958       0.00000000
Si      -2.64924270      -2.67956069       0.04655290       0.00000000
Si       2.56337811      -2.78217140       0.19144630       0.00000000
Si       2.66237244       2.72434449       0.11039481       0.00000000
Si      -2.72453508       2.72582688      -0.02998211       0.00000000
Si       1.15755111       0.91136523      -3.61044098       0.00000000
Si       3.63226275      -1.02546364      -0.99579528       0.00000000
