10
Lattice="16.28999089631971 0.0 0.0 0.0 16.28999089631971 0.0 0.0 0.0 34.529650657227435" Properties=species:S:1:pos:R:3:initial_magmoms:R:1 pbc="T T T"
Si      -0.39351753      -1.02861576       2.07506052       0.00000000
Si       0.58124349      -1.70223984      -1.51940907       0.00000000
Si       2.15326500       0.98429067      -0.12047402       0.00000000
Si      -1.56027249       1.88351496      -0.17637755       0.00000000
Si      -2.74361067      -1.53132516       1.77883048       0.00000000
Si       2.27133655       1.65969036      -2.40474980       0.00000000
Si       0.77222745      -3.06751451       1.95130618       0.00000000
Si       0.36634581      -3.78179585      -0.29149947       0.00000000
Si       2.48676854      -0.76593951      -2.84928478       0.00000000
Si      -3.44323359       1.07087202      -1.38353482       0.00000000
