10
Lattice="16.28999089631971 0.0 0.0 0.0 16.28999089631971 0.0 0.0 0.0 34.529650657227435" Properties=species:S:1:pos:R:3:initial_magmoms:R:1 pbc="T T T"
Si      -2.24402895       0.78069825       0.01377734       0.00000000
Si       0.68025411      -1.38091959       1.84581804       0.00000000
Si      -0.48646827      -1.48294386      -1.86480936       0.00000000
Si       1.66170350       1.79506026      -0.22313073       0.00000000
Si      -2.52768672       2.02452120      -1.95434479       0.00000000
Si      -2.42479908       2.32129242       1.75169016       0.00000000
Si      -3.63967470      -1.15395102      -0.11529457       0.00000000
Si       2.63666749      -2.57317492       1.01341128       0.00000000
Si      -1.24501212      -2.25119655       2.94189335       0.00000000
Si      -0.09295074      -0.45432810      -3.93986987       0.00000000
