10
Lattice="16.28999089631971 0.0 0.0 0.0 16.28999089631971 0.0 0.0 0.0 34.529650657227435" Properties=species:S:1:pos:R:3:initial_magmoms:R:1 pbc="T T T"
Si      -2.32808535      -0.29830657      -0.48697194       0.00000000
Si       1.59189138      -0.21627013      -1.82858773       0.00000000
Si      -0.52962048      -1.62063103       1.86774438       0.00000000
Si       0.71539164       2.09740576       1.25456650       0.00000000
Si       2.16155268      -2.48352862      -1.83856681       0.00000000
Si       3.32561979       1.30228108      -1.24400042       0.00000000
Si      -1.98855288      -0.11256799       3.26605789       0.00000000
Si      -1.03099410      -3.69148099       0.41815430       0.00000000
Si      -2.82447423       0.47811948      -2.63112632       0.00000000
Si      -2.83177215      -2.59522915      -0.62989024       0.00000000
