10
Lattice="16.28999089631971 0.0 0.0 0.0 16.28999089631971 0.0 0.0 0.0 34.529650657227435" Properties=species:S:1:pos:R:3:initial_magmoms:R:1 pbc="T T T"
Si      -1.13350707       2.06573490      -0.39819615       0.00000000
Si       0.91235403      -0.92716164      -2.00886714       0.00000000
Si       1.27985643       0.63592902       1.96435839       0.00000000
Si      -1.08867699      -1.94468391       1.14410608       0.00000000
Si      -2.31314742       1.70196291       1.55083107       0.00000000
Si      -0.82389933       0.71390925       3.13263525       0.00000000
Si       2.26560410       2.48077152       0.60223197       0.00000000
Si       2.74293205      -2.16850851      -1.08426617       0.00000000
Si       0.23060124       3.96177687       0.12496288       0.00000000
Si       2.07291729       0.65487429      -3.39640740       0.00000000
