10
Lattice="16.28999089631971 0.0 0.0 0.0 16.28999089631971 0.0 0.0 0.0 34.529650657227435" Properties=species:S:1:pos:R:3:initial_magmoms:R:1 pbc="T T T"
Si      -0.18077013       1.54059417       1.73791282       0.00000000
Si      -0.28365777       1.24382295      -1.96812213       0.00000000
Si       2.24402895      -0.78069825      -0.01377734       0.00000000
Si      -1.39564575      -1.93464927      -0.12907191       0.00000000
Si       1.75756068      -2.26364211      -1.87858669       0.00000000
Si      -0.59253246      -2.76635151      -2.17481673       0.00000000
Si      -2.57005701       1.95395292      -1.74506046       0.00000000
Si      -0.53823789      -3.59882590       1.29102983       0.00000000
Si       0.79159626       0.72093024       3.73041289       0.00000000
Si       1.21461498       3.44362455       1.53415324       0.00000000
