10
Lattice="16.28999089631971 0.0 0.0 0.0 16.28999089631971 0.0 0.0 0.0 34.529650657227435" Properties=species:S:1:pos:R:3:initial_magmoms:R:1 pbc="T T T"
Si      -1.14792372       1.77762996       0.98861898       0.00000000
Si      -0.97236639       0.81966393      -1.99250008       0.00000000
Si       2.36934792       0.42300243       0.13811868       0.00000000
Si      -0.39697101      -2.21796495       0.91821298       0.00000000
Si       2.89955484      -1.83075165       0.12413416       0.00000000
Si       0.42301872       2.72269431      -2.19625966       0.00000000
Si       0.64583334       2.70474273       2.19308293       0.00000000
Si       1.68272442      -2.28643182       2.18106660       0.00000000
Si       2.49259806       1.30409595       2.32729975       0.00000000
Si       0.20742057      -3.75282504      -0.80229688       0.00000000
