10
Lattice="16.28999089631971 0.0 0.0 0.0 16.28999089631971 0.0 0.0 0.0 34.529650657227435" Properties=species:S:1:pos:R:3:initial_magmoms:R:1 pbc="T T T"
Si       1.54951036      -0.61489863      -1.56910973       0.00000000
Si       1.54383981       1.34245890       1.21714255       0.00000000
Si      -1.31562927      -1.58501700       1.19650071       0.00000000
Si      -1.39807296       0.97753032      -1.75446500       0.00000000
Si      -2.60532486       2.56142331      -0.41198596       0.00000000
Si      -2.58548364      -0.11210778       2.61396784       0.00000000
Si       0.14540454       2.61241101       2.63241359       0.00000000
Si      -2.63311560      -0.94229505      -2.58707893       0.00000000
Si       1.90570913      -2.89342980      -1.64497142       0.00000000
Si       0.14824073      -2.81351106       2.62258299       0.00000000
