10
Lattice="16.28999089631971 0.0 0.0 0.0 16.28999089631971 0.0 0.0 0.0 34.529650657227435" Properties=species:S:1:pos:R:3:initial_magmoms:R:1 pbc="T T T"
Si      -1.36449927      -1.34814411      -1.38595189       0.00000000
Si       1.35325543       1.36694277      -1.39354842       0.00000000
Si      -1.39199679       1.38914604       1.40155930       0.00000000
Si       1.34726295      -1.43334081       1.49133645       0.00000000
Si       2.68287408       2.71235016      -0.02558649       0.00000000
Si       2.71899063      -2.69742852      -0.01961285       0.00000000
Si      -2.72442105      -2.71191033       0.00559381       0.00000000
Si      -2.71857294       2.71841004      -0.03753375       0.00000000
Si      -0.00518022      -2.70643689      -2.74956309       0.00000000
Si       2.70809262       0.00601101      -2.75166940       0.00000000
