10
Lattice="16.28999089631971 0.0 0.0 0.0 16.28999089631971 0.0 0.0 0.0 34.529650657227435" Properties=species:S:1:pos:R:3:initial_magmoms:R:1 pbc="T T T"
Si      -1.36410831      -1.89604197      -0.52315903       0.00000000
Si      -0.08490348       1.18560249      -2.15900214       0.00000000
Si       2.03500286      -1.48100535       0.47726910       0.00000000
Si      -1.17061569       1.28513439       1.90082380       0.00000000
Si      -2.54374866      -2.25981396       1.42586819       0.00000000
Si      -0.89694369      -0.48441573      -3.61114741       0.00000000
Si      -2.95130817      -0.19486098       2.40875525       0.00000000
Si      -2.65572612      -1.47672108      -2.40378297       0.00000000
Si       0.50715657       1.67057208       3.47375386       0.00000000
Si       2.47610511       2.02435830       2.22308921       0.00000000
