10
Lattice="16.28999089631971 0.0 0.0 0.0 16.28999089631971 0.0 0.0 0.0 34.529650657227435" Properties=species:S:1:pos:R:3:initial_magmoms:R:1 pbc="T T T"
Si       0.79350219      -1.10899062      -1.99988942       0.00000000
Si       1.45811790       1.94284314       0.23000213       0.00000000
Si      -2.46161448       0.31657986      -0.21442925       0.00000000
Si      -0.77744025      -2.05405497       1.18498921       0.00000000
Si       1.01631681      -1.12694220       2.38945316       0.00000000
Si      -2.65206087      -1.83282048      -1.40870695       0.00000000
Si      -0.60188292      -3.01202100      -1.79612984       0.00000000
Si       0.24814557       3.36776202       1.70959849       0.00000000
Si       1.42863300       2.98256868      -1.89816502       0.00000000
Si       0.37048347      -3.83168493       0.19637023       0.00000000
