10
Lattice="16.28999089631971 0.0 0.0 0.0 16.28999089631971 0.0 0.0 0.0 34.529650657227435" Properties=species:S:1:pos:R:3:initial_magmoms:R:1 pbc="T T T"
Si      -1.91953215       1.24538679      -0.37171190       0.00000000
Si      -0.19924299      -1.86895170      -1.36264437       0.00000000
Si       2.17878573       0.76176927      -0.37198813       0.00000000
Si      -0.65761101      -0.08535960       2.31569779       0.00000000
Si       1.67720211       2.65947282       1.06720851       0.00000000
Si       2.95329459      -1.55504340      -0.19195044       0.00000000
Si      -0.96741423       2.62575252      -2.04249904       0.00000000
Si      -3.39768675      -0.66889998      -0.21732974       0.00000000
Si      -0.46042056      -2.36340207       2.66724436       0.00000000
Si       0.57743163       1.83446577       3.14831172       0.00000000
