10
Lattice="16.28999089631971 0.0 0.0 0.0 16.28999089631971 0.0 0.0 0.0 34.529650657227435" Properties=species:S:1:pos:R:3:initial_magmoms:R:1 pbc="T T T"
Si       0.19719045      -2.27804247       0.35154657       0.00000000
Si      -2.20879368       0.68435919       0.49677836       0.00000000
Si       0.65761101       0.08535960      -2.31569779       0.00000000
Si       1.23504264       1.91982537       0.83261393       0.00000000
Si      -1.26192114       1.33074639      -2.68740968       0.00000000
Si      -1.89392427       2.68289784      -0.78782895       0.00000000
Si       0.53315541      -2.59362864       2.57799694       0.00000000
Si      -2.74007574      -0.58354038      -2.53302753       0.00000000
Si       2.63311560       0.94229505       2.58707893       0.00000000
Si       2.33481312       2.74483242      -1.24848928       0.00000000
