10
Lattice="16.28999089631971 0.0 0.0 0.0 16.28999089631971 0.0 0.0 0.0 34.529650657227435" Properties=species:S:1:pos:R:3:initial_magmoms:R:1 pbc="T T T"
Si      -1.35143469       1.35624024       1.35749944       0.00000000
Si       1.35304740      -1.35462753       1.35912234       0.00000000
Si      -1.35612621      -1.35679410      -1.35663620       0.00000000
Si       1.35819504       1.35826289      -1.35677432       0.00000000
Si      -0.00232947       2.68500318       2.72245730       0.00000000
Si      -2.71365336       0.00110772      -2.71379035       0.00000000
Si       0.00091224      -2.71379997      -2.71410112       0.00000000
Si      -2.71337643      -2.71524978       0.00100136       0.00000000
Si      -2.71500543       2.71404662       0.00058700       0.00000000
Si       0.00091224       2.71546874      -2.71365223       0.00000000
