10
Lattice="16.28999089631971 0.0 0.0 0.0 16.28999089631971 0.0 0.0 0.0 34.529650657227435" Properties=species:S:1:pos:R:3:initial_magmoms:R:1 pbc="T T T"
Si       2.19115161      -0.44712792      -0.59577493       0.00000000
Si      -0.63254070       1.95812383       1.15546635       0.00000000
Si      -0.28487952      -1.96315677       1.28768045       0.00000000
Si      -0.96635538       0.41831091      -2.12067421       0.00000000
Si      -2.65401567       1.14474132       1.91018134       0.00000000
Si      -0.68683527       2.79059822      -2.31038022       0.00000000
Si       2.82900285       1.25440886      -2.13790452       0.00000000
Si      -0.23346828      -1.16906814       3.58314385       0.00000000
Si       3.26948445      -1.39422852       1.31381941       0.00000000
Si      -3.19355676      -0.31644954      -2.02378396       0.00000000
