10
Lattice="16.28999089631971 0.0 0.0 0.0 16.28999089631971 0.0 0.0 0.0 34.529650657227435" Properties=species:S:1:pos:R:3:initial_magmoms:R:1 pbc="T T T"
Si       0.28487952       1.96315677      -1.28768045       0.00000000
Si      -1.84238271      -1.25591013      -0.84915364       0.00000000
Si       2.04032250      -1.23470055       0.21263371       0.00000000
Si       0.05141124       0.79408863       2.29546340       0.00000000
Si       2.47603113       1.51602885      -1.88345538       0.00000000
Si       3.55436397       0.56892825       0.02613896       0.00000000
Si      -2.03866092       1.77932412       2.53292394       0.00000000
Si      -3.03974658      -1.92653685       1.03005458       0.00000000
Si       2.06980740      -2.27442609       2.34080086       0.00000000
Si      -0.34766118       3.92128060      -0.13221411       0.00000000
