10
Lattice="16.28999089631971 0.0 0.0 0.0 16.28999089631971 0.0 0.0 0.0 34.529650657227435" Properties=species:S:1:pos:R:3:initial_magmoms:R:1 pbc="T T T"
Si       1.96392959       1.09574605      -0.61241823       0.00000000
Si       0.62218908      -1.42267086       1.74253979       0.00000000
Si      -0.23408730      -1.16144442      -2.01832827       0.00000000
Si      -2.12548662       0.80376489       0.68361841       0.00000000
Si      -1.32019047      -1.40014179       3.08957675       0.00000000
Si       1.28282188       2.43586066      -2.46807722       0.00000000
Si      -1.88985177       0.86711670       3.09955582       0.00000000
Si       3.44625443      -0.51981390      -1.49282122       0.00000000
Si       1.90352627      -1.81755675      -2.76841629       0.00000000
Si      -2.59885773       2.75783903      -0.53959515       0.00000000
