10
Lattice="16.28999089631971 0.0 0.0 0.0 16.28999089631971 0.0 0.0 0.0 34.529650657227435" Properties=species:S:1:pos:R:3:initial_magmoms:R:1 pbc="T T T"
Si      -2.15326500      -0.98429067       0.12047402       0.00000000
Si       0.11807155       0.67539969      -2.28427579       0.00000000
Si       0.19173004       1.82918781       1.58857200       0.00000000
Si       1.81247753      -1.58925240      -0.65040086       0.00000000
Si       0.33350354      -1.75023018      -2.72881076       0.00000000
Si      -1.57202151      -2.68653051      -1.39893505       0.00000000
Si       3.40575356      -0.05517423      -1.44278773       0.00000000
Si       2.54960003       2.32891614       1.42341658       0.00000000
Si      -1.34500407       3.47983722       0.76434877       0.00000000
Si      -3.71353749       0.89922429      -0.05590354       0.00000000
