10
Lattice="16.28999089631971 0.0 0.0 0.0 16.28999089631971 0.0 0.0 0.0 34.529650657227435" Properties=species:S:1:pos:R:3:initial_magmoms:R:1 pbc="T T T"
Si      -1.35683120      -1.35583299       1.35608373       0.00000000
Si      -1.35290531       1.35659862      -1.36140130       0.00000000
Si       1.35692872      -1.35420399      -1.36015823       0.00000000
Si       1.35775462       1.35912357       1.35615279       0.00000000
Si       0.00143342      -2.71301805       2.71334146       0.00000000
Si       2.71445424       0.00097740       2.71299617       0.00000000
Si       2.71486149      -2.71321353      -0.00107042       0.00000000
Si      -2.71496108       0.00208512       2.71330694       0.00000000
Si       2.71318362       2.71524978      -0.00124307       0.00000000
Si       0.00049338       2.71635750       2.71354864       0.00000000
