10
Lattice="16.28999089631971 0.0 0.0 0.0 16.28999089631971 0.0 0.0 0.0 34.529650657227435" Properties=species:S:1:pos:R:3:initial_magmoms:R:1 pbc="T T T"
Si      -0.98574767      -1.84484250       1.36212642       0.00000000
Si       1.44814842       1.40737455       1.47559092       0.00000000
Si      -2.03500286       1.48100535      -0.47726910       0.00000000
Si       1.15019943      -0.70612263      -2.37574488       0.00000000
Si      -2.26560410      -2.48077152      -0.60223197       0.00000000
Si      -3.39911117      -0.41503662      -1.00042813       0.00000000
Si       3.15804456       2.26668834      -0.46891292       0.00000000
Si       0.44110225       3.50536365       1.74582011       0.00000000
Si       0.55098644      -3.49549191       2.18634964       0.00000000
Si       0.37955700      -0.15995151       4.15212375       0.00000000
