10
Lattice="16.28999089631971 0.0 0.0 0.0 16.28999089631971 0.0 0.0 0.0 34.529650657227435" Properties=species:S:1:pos:R:3:initial_magmoms:R:1 pbc="T T T"
Si      -1.00704617       2.09798910       0.27022920       0.00000000
Si       1.77596838      -0.24374727       1.62196219       0.00000000
Si      -1.44814842      -1.40737455      -1.47559092       0.00000000
Si       1.70989614       0.85931379      -1.94450383       0.00000000
Si      -1.06859142      -1.56732606       2.67653284       0.00000000
Si       0.57977739      -0.12685023       3.64301830       0.00000000
Si      -2.97599471       1.74420288       1.52089384       0.00000000
Si       2.63606409      -2.42523891       1.30121608       0.00000000
Si       0.27041400       3.33690876       1.82668860       0.00000000
Si      -1.10023963       3.26277297      -1.74716677       0.00000000
