10
Lattice="16.28999089631971 0.0 0.0 0.0 16.28999089631971 0.0 0.0 0.0 34.529650657227435" Properties=species:S:1:pos:R:3:initial_magmoms:R:1 pbc="T T T"
Si      -1.51466212      -1.72066383       0.64553218       0.00000000
Si      -1.27032678       1.67857047      -1.24261923       0.00000000
Si      -0.21962178       1.60171425       1.92250843       0.00000000
Si       0.78882696      -1.75376511      -1.67993750       0.00000000
Si       2.26696527      -1.21803588       1.88386973       0.00000000
Si       2.84669379      -2.10582459      -0.32854981       0.00000000
Si      -1.67957068       3.23802846       0.71569647       0.00000000
Si      -1.52033267       0.23669370       3.43178446       0.00000000
Si      -3.36247496       0.69677217      -1.62092630       0.00000000
Si      -3.06417248      -1.10576520       2.21464191       0.00000000
