10
Lattice="16.28999089631971 0.0 0.0 0.0 16.28999089631971 0.0 0.0 0.0 34.529650657227435" Properties=species:S:1:pos:R:3:initial_magmoms:R:1 pbc="T T T"
Si      -1.54951036       0.61489863       1.56910973       0.00000000
Si       0.35619877      -2.27853117      -0.07586168       0.00000000
Si       1.51466212       1.72066383      -0.64553218       0.00000000
Si       2.30348908      -0.03310128      -2.32546968       0.00000000
Si      -2.94758332       1.59242895      -0.18535527       0.00000000
Si       1.30792573      -2.23244676      -2.16856686       0.00000000
Si      -0.00567055       1.95735753       2.78625228       0.00000000
Si       1.29504034       3.32237808       1.27697625       0.00000000
Si       1.85774581      -2.91884220       1.55174200       0.00000000
Si      -1.84781284       2.41743600      -2.26645848       0.00000000
