10
Lattice="16.28999089631971 0.0 0.0 0.0 16.28999089631971 0.0 0.0 0.0 34.529650657227435" Properties=species:S:1:pos:R:3:initial_magmoms:R:1 pbc="T T T"
Si       1.35534553       1.35718506       1.35649808       0.00000000
Si       1.35726124      -1.35723393      -1.35739586       0.00000000
Si      -1.35740603       1.35739683      -1.35729227       0.00000000
Si      -1.35841601      -1.35948195       1.35774115       0.00000000
Si       0.00171380      -2.71277370       2.71399753       0.00000000
Si       2.71269024      -0.00110772      -2.71479171       0.00000000
Si       0.00188044       2.71356514       2.71430830       0.00000000
Si       0.00080434       2.71440198      -2.71437736       0.00000000
Si       2.71396086      -2.71538010      -0.00055247       0.00000000
Si       2.71461246       2.71495417       0.00017265       0.00000000
