10
Lattice="16.28999089631971 0.0 0.0 0.0 16.28999089631971 0.0 0.0 0.0 34.529650657227435" Properties=species:S:1:pos:R:3:initial_magmoms:R:1 pbc="T T T"
Si      -1.35346509       1.35638008       1.35781021       0.00000000
Si      -1.35534553      -1.35718506      -1.35649808       0.00000000
Si       1.35926692       1.35776911      -1.35632544       0.00000000
Si       1.36211767      -1.35536058       1.36278248       0.00000000
Si      -2.71275156       0.00021177      -2.71379035       0.00000000
Si      -2.71330542       2.71425350       0.00169195       0.00000000
Si       0.00191570      -2.71441899      -2.71389394       0.00000000
Si       0.00223662       2.71519344      -2.71403206       0.00000000
Si      -2.71376154      -2.71666701       0.00124307       0.00000000
Si       2.71679407       0.00052128      -2.71396300       0.00000000
