10
Lattice="16.28999089631971 0.0 0.0 0.0 16.28999089631971 0.0 0.0 0.0 34.529650657227435" Properties=species:S:1:pos:R:3:initial_magmoms:R:1 pbc="T T T"
Si      -1.32961865      -1.34540739      -1.36796193       0.00000000
Si       1.23595325      -1.45179738       1.38488147       0.00000000
Si       1.38613076       1.36919079      -1.36267890       0.00000000
Si      -1.49402988       1.22613201       1.43767734       0.00000000
Si       2.07091349       0.38382498       2.62598140       0.00000000
Si       0.36197846       2.27291112       2.82960286       0.00000000
Si      -2.68287408      -2.71235016       0.02558649       0.00000000
Si      -2.68974846       0.00788436      -2.72421831       0.00000000
Si      -2.68238538       2.73450456       0.00849430       0.00000000
Si       0.02521855      -2.70633915      -2.72608291       0.00000000
