10
Lattice="16.28999089631971 0.0 0.0 0.0 16.28999089631971 0.0 0.0 0.0 34.529650657227435" Properties=species:S:1:pos:R:3:initial_magmoms:R:1 pbc="T T T"
Si       0.95615784       1.77676659      -1.37662888       0.00000000
Si      -1.85600834      -1.04677911      -1.39192553       0.00000000
Si       1.70893503      -1.88908614      -0.20362146       0.00000000
Si       1.26374562       0.08084727       2.28707269       0.00000000
Si      -1.15699399       0.07744266       2.41438358       0.00000000
Si       1.65314178      -2.32601652       2.21704652       0.00000000
Si      -0.36197846      -2.27291112      -2.82960286       0.00000000
Si       2.38436730       0.45318780      -2.80850524       0.00000000
Si       2.31787152       3.14244104       0.02016533       0.00000000
Si       3.72211839      -0.96309738      -1.31067721       0.00000000
