10
Lattice="16.28999089631971 0.0 0.0 0.0 16.28999089631971 0.0 0.0 0.0 34.61538196595647" Properties=species:S:1:pos:R:3:initial_magmoms:R:1 pbc="T T T"
Si      -1.64387344       1.52663364       0.75918498       0.00000000
Si       1.24052260      -0.86139891       1.82530473       0.00000000
Si      -1.14280933      -1.91840814      -0.86105811       0.00000000
Si       1.25256091       0.99088812      -1.81993934       0.00000000
Si       2.47548379      -2.59628391       0.74319267       0.00000000
Si       1.92235684      -0.95366547      -3.03026685       0.00000000
Si      -0.51605417      -1.84461444       3.30324390       0.00000000
Si      -2.23438594      -1.30052844      -2.87768216       0.00000000
Si      -3.16920388       2.22685929      -0.91945429       0.00000000
Si      -3.21629827       0.61310673       2.31459342       0.00000000
