10
Lattice="16.28999089631971 0.0 0.0 0.0 16.28999089631971 0.0 0.0 0.0 34.61538196595647" Properties=species:S:1:pos:R:3:initial_magmoms:R:1 pbc="T T T"
Si       0.78915276       1.74667896       1.42548442       0.00000000
Si       0.06178797       0.19347633      -2.43429348       0.00000000
Si      -1.80897844      -0.97383249       1.35089861       0.00000000
Si       1.63774773      -1.92784005      -0.03039232       0.00000000
Si      -2.63902235       1.07443953      -1.12115823       0.00000000
Si       2.13669414       0.51253227       2.87056666       0.00000000
Si       3.30758676      -0.86765427       1.33715284       0.00000000
Si      -0.57415734      -2.22073425       2.88194128       0.00000000
Si       0.51974874       2.42589051      -3.05456686       0.00000000
Si      -2.63661795      -2.92715010       0.12769622       0.00000000
