10
Lattice="16.28999089631971 0.0 0.0 0.0 16.28999089631971 0.0 0.0 0.0 34.61538196595647" Properties=species:S:1:pos:R:3:initial_magmoms:R:1 pbc="T T T"
Si       1.35312885       1.34252406      -1.35299142       0.00000000
Si      -1.35710361       1.35467640       1.35536604       0.00000000
Si       1.35426915      -1.35941679       1.35391219       0.00000000
Si      -1.35037584      -1.36291914      -1.35762989       0.00000000
Si      -0.14445972       2.52638352      -2.70612477       0.00000000
Si       2.59753824      -0.04158837      -2.75857402       0.00000000
Si       2.71324611      -0.00109143       2.71125131       0.00000000
Si      -0.00029322       2.71278999       2.71180515       0.00000000
Si      -2.71383255       2.71145421      -0.00564231       0.00000000
Si      -2.71551042      -0.00164529       2.71159746       0.00000000
