10
Lattice="16.28999089631971 0.0 0.0 0.0 16.28999089631971 0.0 0.0 0.0 34.61538196595647" Properties=species:S:1:pos:R:3:initial_magmoms:R:1 pbc="T T T"
Si      -1.75892904      -1.04885934      -1.09387091       0.00000000
Si      -1.30520367       1.29623928       1.46087032       0.00000000
Si       1.39976712      -1.40772871       1.42618223       0.00000000
Si       0.48167901       1.93545888      -1.88824041       0.00000000
Si      -2.79554319       2.43372111       0.05087079       0.00000000
Si       2.64271041       2.61757005       0.05992618       0.00000000
Si      -0.91336401      -1.69537753      -3.19832951       0.00000000
Si      -3.55654683       0.62201247      -1.25269880       0.00000000
Si       0.04517217       2.65915842       2.81850021       0.00000000
Si      -2.66727573      -0.05952203       2.81247713       0.00000000
