10
Lattice="16.28999089631971 0.0 0.0 0.0 16.28999089631971 0.0 0.0 0.0 34.61538196595647" Properties=species:S:1:pos:R:3:initial_magmoms:R:1 pbc="T T T"
Si       1.32854724      -1.21060617       1.50611611       0.00000000
Si       1.35451350       1.34520214      -1.36291220       0.00000000
Si      -1.35827649      -1.36894711      -1.36377758       0.00000000
Si      -1.50820965       1.21778176       1.39112375       0.00000000
Si      -0.45002754      -2.19494785       2.85185907       0.00000000
Si      -2.35120086      -0.61420468       2.78619365       0.00000000
Si       2.41186482       0.54399478       2.76327826       0.00000000
Si       0.00118917       2.70269671      -2.72374747       0.00000000
Si      -2.73393441       2.70215914       0.00709616       0.00000000
Si      -2.71443528      -0.01405827      -2.72405901       0.00000000
