10
Lattice="16.28999089631971 0.0 0.0 0.0 16.28999089631971 0.0 0.0 0.0 34.61538196595647" Properties=species:S:1:pos:R:3:initial_magmoms:R:1 pbc="T T T"
Si      -1.22572476       1.48437738      -1.38402759       0.00000000
Si       1.50820965      -1.21778176      -1.39112375       0.00000000
Si      -0.84299121      -1.83198643       1.39506990       0.00000000
Si       0.53105400       1.65535722       1.76310085       0.00000000
Si       2.83675689      -2.42838793       0.11499236       0.00000000
Si      -2.56166766       0.13002678      -2.75424364       0.00000000
Si       2.87932266       1.62056178       1.80716626       0.00000000
Si       0.14993316      -2.58672887      -2.75490133       0.00000000
Si      -2.68785000      -2.71198268       0.11682698       0.00000000
Si      -2.56248216       2.86449876       0.11492313       0.00000000
