10
Lattice="16.28999089631971 0.0 0.0 0.0 16.28999089631971 0.0 0.0 0.0 34.61538196595647" Properties=species:S:1:pos:R:3:initial_magmoms:R:1 pbc="T T T"
Si       1.90125477       1.41421635       0.21627703       0.00000000
Si       0.45792819      -0.98526481      -2.21618184       0.00000000
Si      -2.27537091       0.94589514      -0.27121167       0.00000000
Si      -0.50691222      -0.61689253       2.34907036       0.00000000
Si       1.14060951       2.67020793       1.99488558       0.00000000
Si       1.83197340       2.50207884      -1.84815089       0.00000000
Si       1.56805911      -1.12697152       3.32875545       0.00000000
Si       1.30091940       0.84672162      -3.61125174       0.00000000
Si      -1.18726407       2.99273364       2.28129341       0.00000000
Si      -2.27861262       3.25870047       0.13801161       0.00000000
