10
Lattice="16.28999089631971 0.0 0.0 0.0 16.28999089631971 0.0 0.0 0.0 34.61538196595647" Properties=species:S:1:pos:R:3:initial_magmoms:R:1 pbc="T T T"
Si      -0.62462376      -1.03254165      -2.06390869       0.00000000
Si       2.00961585      -0.81570546       1.05036974       0.00000000
Si       0.34042842       2.32508799      -0.62591569       0.00000000
Si      -1.75669731      -0.53975286       1.59878154       0.00000000
Si       2.44312533       2.47762755       0.36335787       0.00000000
Si      -2.92410387      -0.70333704      -1.79968933       0.00000000
Si       2.58804117       1.16794413       2.27672418       0.00000000
Si      -3.12557859      -1.91088868       0.25047704       0.00000000
Si       1.13920857      -2.61483170       2.37132807       0.00000000
Si      -0.09358605       0.52124742      -3.71765949       0.00000000
