10
Lattice="16.28999089631971 0.0 0.0 0.0 16.28999089631971 0.0 0.0 0.0 34.61538196595647" Properties=species:S:1:pos:R:3:initial_magmoms:R:1 pbc="T T T"
Si       0.06928137      -1.08786249       2.06442792       0.00000000
Si       2.34826866      -0.03479544       0.04406541       0.00000000
Si      -0.53105400      -1.65535722      -1.76310085       0.00000000
Si      -1.42153056       2.15330994      -0.22423857       0.00000000
Si       2.53337193       1.41017643      -1.77504316       0.00000000
Si      -1.75677876      -0.17097984      -3.14712844       0.00000000
Si      -1.83197340      -2.50207884       1.84815089       0.00000000
Si      -3.09353616       1.20914154      -1.64817772       0.00000000
Si      -1.37404521      -3.48734365      -0.36803095       0.00000000
Si      -0.69136389       0.16812909       3.84303647       0.00000000
