10
Lattice="16.28999089631971 0.0 0.0 0.0 16.28999089631971 0.0 0.0 0.0 34.61538196595647" Properties=species:S:1:pos:R:3:initial_magmoms:R:1 pbc="T T T"
Si       1.95786252       1.21753089       0.18969240       0.00000000
Si      -0.71768853      -1.12646979      -1.91745092       0.00000000
Si       0.02432097      -1.57912002       1.75039700       0.00000000
Si      -1.74309516       1.56384000       0.35252325       0.00000000
Si      -2.23252821      -2.69421939       1.68677389       0.00000000
Si      -1.45155303       0.25148502      -3.63582868       0.00000000
Si       1.99438470       3.31074702      -0.88158504       0.00000000
Si      -2.78619273      -2.21557032      -1.79851241       0.00000000
Si      -3.64413816       1.42008075      -1.02541203       0.00000000
Si       0.65853954      -2.63166579      -3.09461688       0.00000000
