10
Lattice="16.28999089631971 0.0 0.0 0.0 16.28999089631971 0.0 0.0 0.0 34.61538196595647" Properties=species:S:1:pos:R:3:initial_magmoms:R:1 pbc="T T T"
Si       0.89060688       1.84829665      -1.09779976       0.00000000
Si       1.34754138      -1.23414669       1.44508224       0.00000000
Si      -0.78915276      -1.74667896      -1.42548442       0.00000000
Si      -1.39152438       1.46806334       1.42481838       0.00000000
Si       2.51843400      -2.61433323      -0.08833158       0.00000000
Si      -2.59813120      -2.72051145      -0.07458581       0.00000000
Si      -0.02264310      -2.59206480       2.80823674       0.00000000
Si       1.73617191       1.20177846      -3.20225835       0.00000000
Si      -0.90701091       3.51916847      -1.25662765       0.00000000
Si       2.69480583       0.12430899       2.80712905       0.00000000
