10
Lattice="16.28999089631971 0.0 0.0 0.0 16.28999089631971 0.0 0.0 0.0 34.61538196595647" Properties=species:S:1:pos:R:3:initial_magmoms:R:1 pbc="T T T"
Si      -1.35539316      -1.35668007      -1.35778912       0.00000000
Si      -1.35435060       1.35892809       1.35938142       0.00000000
Si       1.35962856       1.35808101      -1.35716604       0.00000000
Si       1.35998694      -1.35650088       1.36118143       0.00000000
Si       2.69195508       0.01137042       2.73385516       0.00000000
Si      -2.71330801      -2.71293660       0.00000000       0.00000000
Si      -2.71217911       0.00021177      -2.71478208       0.00000000
Si      -2.71194128       2.71539639      -0.00072692       0.00000000
Si       0.00221544      -2.71419093      -2.71447054       0.00000000
Si       0.00254124       2.71513575      -2.71457439       0.00000000
