10
Lattice="16.28999089631971 0.0 0.0 0.0 16.28999089631971 0.0 0.0 0.0 34.61538196595647" Properties=species:S:1:pos:R:3:initial_magmoms:R:1 pbc="T T T"
Si      -1.96157664       1.03985586      -0.96521585       0.00000000
Si       1.30678380       1.36321236       1.53135074       0.00000000
Si      -0.21002697      -2.16494100       1.10675823       0.00000000
Si       1.02936510      -1.31675328      -1.86978552       0.00000000
Si       1.68415794       0.99932634      -2.12978180       0.00000000
Si      -0.42226938       2.53941552      -2.09942409       0.00000000
Si      -0.75419442      -2.71946889      -2.40182424       0.00000000
Si       3.40477290       0.33879942       1.47125840       0.00000000
Si       1.90607661      -3.15752328       0.87490427       0.00000000
Si      -3.36184875       1.62230481       0.85306195       0.00000000
