10
Lattice="16.28999089631971 0.0 0.0 0.0 16.28999089631971 0.0 0.0 0.0 34.61538196595647" Properties=species:S:1:pos:R:3:initial_magmoms:R:1 pbc="T T T"
Si      -1.35451350      -1.34520214       1.36291220       0.00000000
Si      -1.35332433       1.35749457      -1.36083527       0.00000000
Si       1.36260963      -1.35791974      -1.36093912       0.00000000
Si       1.38119652       1.37182977       1.37191220       0.00000000
Si      -2.70663237       2.71033020      -0.00183462       0.00000000
Si      -2.71278999      -2.71414925      -0.00086539       0.00000000
Si      -2.71091664      -0.00066789      -2.71800131       0.00000000
Si       2.71769328       2.71145421      -0.00436154       0.00000000
Si       2.71710684      -2.71466181      -0.00024231       0.00000000
Si       0.00374670       2.71381626      -2.71820900       0.00000000
