10
Lattice="16.28999089631971 0.0 0.0 0.0 16.28999089631971 0.0 0.0 0.0 34.61538196595647" Properties=species:S:1:pos:R:3:initial_magmoms:R:1 pbc="T T T"
Si      -0.03989421      -1.11463348       2.03337790       0.00000000
Si       2.22065280      -0.06778921      -0.71338881       0.00000000
Si      -1.34213636      -0.72182619      -1.77677393       0.00000000
Si      -0.28233013       2.30221683       0.34542709       0.00000000
Si      -1.03838813       1.19772225      -3.16093999       0.00000000
Si       1.95396921       2.89134468       1.25896215       0.00000000
Si      -0.46673945       3.14107038      -1.94192401       0.00000000
Si       3.02620959      -2.19576887      -0.05531541       0.00000000
Si       2.02670406      -2.43361916       2.10243563       0.00000000
Si      -2.02439807      -2.39424623       2.21777415       0.00000000
