10
Lattice="16.28999089631971 0.0 0.0 0.0 16.28999089631971 0.0 0.0 0.0 34.61538196595647" Properties=species:S:1:pos:R:3:initial_magmoms:R:1 pbc="T T T"
Si      -0.85540419      -1.16755547       1.81357011       0.00000000
Si       0.31477167       2.30526795      -0.10692697       0.00000000
Si      -0.14400360      -1.32019277      -1.95781248       0.00000000
Si      -1.10573262       2.51184144      -1.93991632       0.00000000
Si       1.38828267      -1.41842147       2.74714748       0.00000000
Si       2.60868060       0.54262316       2.18056259       0.00000000
Si      -2.00515239      -2.89608737       0.66101570       0.00000000
Si      -0.77081022      -3.49463084      -1.22784290       0.00000000
Si       3.59583831       1.22638125       0.10066159       0.00000000
Si       1.94891931      -0.89077208      -3.15086690       0.00000000
