10
Lattice="16.28999089631971 0.0 0.0 0.0 16.28999089631971 0.0 0.0 0.0 34.61538196595647" Properties=species:S:1:pos:R:3:initial_magmoms:R:1 pbc="T T T"
Si       1.74979035      -1.61080407      -0.05123079       0.00000000
Si       1.16247069       2.09722347      -0.21298856       0.00000000
Si      -0.75825063       0.33645366       2.28918572       0.00000000
Si      -1.41033933      -0.92701503      -1.76220085       0.00000000
Si      -0.33622560       2.37017871      -2.29489726       0.00000000
Si      -1.57014423      -2.97883827       0.98674663       0.00000000
Si       2.86933689      -0.87754230       1.94060863       0.00000000
Si       0.52457058      -3.67916818      -0.02481924       0.00000000
Si       3.06616896       1.47013992       1.52570843       0.00000000
Si      -1.28091528      -1.82089620       3.03642839       0.00000000
