10
Lattice="16.28999089631971 0.0 0.0 0.0 16.28999089631971 0.0 0.0 0.0 34.61538196595647" Properties=species:S:1:pos:R:3:initial_magmoms:R:1 pbc="T T T"
Si      -0.64106037       2.12092542      -0.74703498       0.00000000
Si       2.29643388       0.48940047      -0.16733085       0.00000000
Si      -0.65871873      -0.32200443       2.26976648       0.00000000
Si      -1.05261093      -1.48450770      -1.54990459       0.00000000
Si       3.09615885      -1.24172154       1.09768899       0.00000000
Si      -3.25373202      -0.75991221      -1.32324295       0.00000000
Si       0.53639712       3.48601113       0.70490803       0.00000000
Si       2.77180866      -0.35082144      -2.31338189       0.00000000
Si       0.38876085       2.33010531      -2.84372445       0.00000000
Si       2.56054365       2.39715495       1.19191211       0.00000000
