10
Lattice="16.28999089631971 0.0 0.0 0.0 16.28999089631971 0.0 0.0 0.0 34.61538196595647" Properties=species:S:1:pos:R:3:initial_magmoms:R:1 pbc="T T T"
Si      -2.20112109       0.72459549       0.22666165       0.00000000
Si      -0.52266465      -2.15734986       0.74724267       0.00000000
Si       1.05261093       1.48450770       1.54990459       0.00000000
Si       0.75825063      -0.33645366      -2.28918572       0.00000000
Si       1.92072132       1.76076981      -2.50217428       0.00000000
Si       0.89783964      -2.36392335       2.58023201       0.00000000
Si      -0.81189360      -3.31529193      -1.30243909       0.00000000
Si       0.41155056       3.60543312       0.80286962       0.00000000
Si       3.62758752      -1.21399596      -0.34857709       0.00000000
Si      -3.69172125      -1.06054416      -0.25241551       0.00000000
