10
Lattice="16.28999089631971 0.0 0.0 0.0 16.28999089631971 0.0 0.0 0.0 34.61538196595647" Properties=species:S:1:pos:R:3:initial_magmoms:R:1 pbc="T T T"
Si      -1.35614250      -1.35790182       1.35626604       0.00000000
Si      -1.35705474       1.35697329      -1.35754681       0.00000000
Si       1.35762489      -1.35752715      -1.35713142       0.00000000
Si       1.35690813       1.35808101       1.35754681       0.00000000
Si      -0.00079821       2.71502172       2.71201285       0.00000000
Si       0.00138465       2.71402803      -2.71415900       0.00000000
Si      -2.71430496       2.71459818      -0.00027692       0.00000000
Si       2.71463076      -0.00159642      -2.71481669       0.00000000
Si       2.71568961       2.71450044       0.00045000       0.00000000
Si      -2.71453302      -2.71581993       0.00003462       0.00000000
