10
Lattice="16.28999089631971 0.0 0.0 0.0 16.28999089631971 0.0 0.0 0.0 34.61538196595647" Properties=species:S:1:pos:R:3:initial_magmoms:R:1 pbc="T T T"
Si       1.35428544      -1.35534429       1.35463911       0.00000000
Si       1.35537687       1.35943308      -1.35758142       0.00000000
Si      -1.35922131      -1.35576783      -1.35765065       0.00000000
Si      -1.36080144       1.36083402       1.36682374       0.00000000
Si       0.00298107      -2.69014689       2.71692823       0.00000000
Si       2.71199178      -2.71228500       0.00017308       0.00000000
Si       2.71298547       0.00206883      -2.71467823       0.00000000
Si      -0.00197109      -2.71339272      -2.71492054       0.00000000
Si      -2.71588509      -2.71267596      -0.00051923       0.00000000
Si       2.71306692       2.71764441      -0.00051923       0.00000000
