10
Lattice="16.28999089631971 0.0 0.0 0.0 16.28999089631971 0.0 0.0 0.0 34.61538196595647" Properties=species:S:1:pos:R:3:initial_magmoms:R:1 pbc="T T T"
Si       0.94337019      -0.13971933      -2.13950872       0.00000000
Si      -2.26077507       0.18262719       0.61857722       0.00000000
Si       0.55746009      -2.16868770       0.79355808       0.00000000
Si       0.94579740       1.62313560       1.45523147       0.00000000
Si       0.11381823      -1.59358554       3.02735915       0.00000000
Si      -3.18132297      -0.98100009      -1.14220440       0.00000000
Si      -2.08404486      -0.81858879       2.76161672       0.00000000
Si       2.84045472      -2.07091512       0.55962719       0.00000000
Si       2.96751672      -1.22857551      -1.65250464       0.00000000
Si       1.57773537       0.29307339       3.24481310       0.00000000
