10
Lattice="16.28999089631971 0.0 0.0 0.0 16.28999089631971 0.0 0.0 0.0 34.61538196595647" Properties=species:S:1:pos:R:3:initial_magmoms:R:1 pbc="T T T"
Si      -1.23434217       0.59854347       1.88885860       0.00000000
Si       2.09798910      -1.02441294      -0.06009234       0.00000000
Si       0.62680662       2.17443807      -0.72996958       0.00000000
Si      -1.30678380      -1.36321236      -1.53135074       0.00000000
Si       2.43273231      -1.02363102      -2.42747425       0.00000000
Si      -1.34501643       2.80027643      -1.94188940       0.00000000
Si       0.37737414      -0.36388602      -3.66113254       0.00000000
Si       1.77675030      -3.15564993       0.79549654       0.00000000
Si      -3.33143532       1.36578618       0.99861971       0.00000000
Si       0.77081022       3.49463084       1.22784290       0.00000000
