10
Lattice="16.28999089631971 0.0 0.0 0.0 16.28999089631971 0.0 0.0 0.0 34.61538196595647" Properties=species:S:1:pos:R:3:initial_magmoms:R:1 pbc="T T T"
Si      -1.64954169      -1.44933759       0.82298117       0.00000000
Si      -1.26962631       2.01966678       0.40773481       0.00000000
Si       1.92298563      -0.16741233       1.46042378       0.00000000
Si       0.55491885      -0.49011723      -2.33020497       0.00000000
Si       3.27108087       1.42618950       0.35224632       0.00000000
Si      -1.01760372      -2.77939980       2.61256280       0.00000000
Si      -1.48603896       2.38083237       2.82420136       0.00000000
Si      -0.04922838       3.98071141      -0.15885008       0.00000000
Si      -3.51108144      -0.40848804       1.87698552       0.00000000
Si      -1.33073010      -1.08095553      -3.62734790       0.00000000
