10
Lattice="16.28999089631971 0.0 0.0 0.0 16.28999089631971 0.0 0.0 0.0 34.61538196595647" Properties=species:S:1:pos:R:3:initial_magmoms:R:1 pbc="T T T"
Si       1.58392557       0.97712307      -1.52629689       0.00000000
Si      -1.03891104      -1.75189895      -1.40957376       0.00000000
Si       1.29977910      -0.42552412       2.11455102       0.00000000
Si      -1.85453505       1.83251097      -0.06296541       0.00000000
Si       2.95863120       2.35048410      -0.17750778       0.00000000
Si       0.29207970       2.41232094      -2.94130526       0.00000000
Si      -2.42193204      -0.33682018      -2.94829758       0.00000000
Si       3.35231000       1.01193480       1.76289316       0.00000000
Si      -1.79795988      -3.59679032       0.08463466       0.00000000
Si      -3.66894783       1.08484884      -1.53173151       0.00000000
