10
Lattice="16.28999089631971 0.0 0.0 0.0 16.28999089631971 0.0 0.0 0.0 34.61538196595647" Properties=species:S:1:pos:R:3:initial_magmoms:R:1 pbc="T T T"
Si       0.99458595       1.08388773      -1.73066622       0.00000000
Si       0.37074411      -2.29983849       0.05881157       0.00000000
Si      -2.30568660       0.28913121      -0.29236168       0.00000000
Si       0.34788924       1.06634340       2.08571639       0.00000000
Si       1.87637735      -2.15304930       1.89287399       0.00000000
Si       0.38779974      -0.96314625       3.27139773       0.00000000
Si      -2.10885453       2.63681343      -0.70726188       0.00000000
Si      -2.93374755      -0.14638194       1.95237786       0.00000000
Si       0.04799034       3.17316168      -1.78044317       0.00000000
Si       1.19648421      -2.71918870      -2.11063948       0.00000000
