10
Lattice="16.28999089631971 0.0 0.0 0.0 16.28999089631971 0.0 0.0 0.0 34.61538196595647" Properties=species:S:1:pos:R:3:initial_magmoms:R:1 pbc="T T T"
Si       0.27645759      -0.17895054       2.33460113       0.00000000
Si       0.89381601       2.16735681      -0.32663093       0.00000000
Si      -2.09473110       0.49451879      -1.00104279       0.00000000
Si       1.22557815      -2.06000312      -0.48994639       0.00000000
Si       2.64874164       0.05760633       2.17308566       0.00000000
Si      -1.10757339       1.17827688      -3.08094379       0.00000000
Si       1.03459419       2.15481351      -2.65358205       0.00000000
Si       2.95248987       1.97715477       0.78891961       0.00000000
Si      -3.31512903      -1.46652584      -0.43445790       0.00000000
Si      -0.12251709      -3.65360495       0.61823107       0.00000000
