10
Lattice="16.28999089631971 0.0 0.0 0.0 16.28999089631971 0.0 0.0 0.0 34.61538196595647" Properties=species:S:1:pos:R:3:initial_magmoms:R:1 pbc="T T T"
Si      -0.27645759       0.17895054      -2.33460113       0.00000000
Si       2.37228405       0.23655686      -0.16151546       0.00000000
Si      -1.23163803       1.61519585       1.26263138       0.00000000
Si      -0.54628515      -2.28853064       0.43203482       0.00000000
Si       0.94912056      -1.88105258      -2.82454752       0.00000000
Si       0.61735842       2.34630734      -2.66123205       0.00000000
Si      -3.43319895       1.43941046       0.15594238       0.00000000
Si       2.96629075      -1.57320416      -1.63080079       0.00000000
Si       2.67603228       2.15610530      -1.54568151       0.00000000
Si       0.97904529      -2.98875629       2.11067409       0.00000000
