10
Lattice="16.28999089631971 0.0 0.0 0.0 16.28999089631971 0.0 0.0 0.0 34.61538196595647" Properties=species:S:1:pos:R:3:initial_magmoms:R:1 pbc="T T T"
Si      -1.35355239       1.35925389      -1.36014296       0.00000000
Si       1.35998435      -1.35734796      -1.36156220       0.00000000
Si      -1.35475785      -1.34105796       1.39005067       0.00000000
Si       1.36189191       1.36005210       1.38309297       0.00000000
Si      -2.71360449      -2.71164969       0.00225000       0.00000000
Si      -2.71033020       2.71544526       0.00083077       0.00000000
Si      -2.71156824       0.00052128      -2.71765516       0.00000000
Si       2.72009510      -2.71059084      -0.00003462       0.00000000
Si       0.00311238      -2.71389771      -2.71824362       0.00000000
Si       2.71657646       2.71635750       0.00200769       0.00000000
