10
Lattice="16.28999089631971 0.0 0.0 0.0 16.28999089631971 0.0 0.0 0.0 34.61538196595647" Properties=species:S:1:pos:R:3:initial_magmoms:R:1 pbc="T T T"
Si      -0.31027563      -0.68145957      -2.17007412       0.00000000
Si      -0.97295283       2.11507731       0.13628083       0.00000000
Si      -0.07592769      -1.84067226       1.43491223       0.00000000
Si       2.18567817       0.86478723       0.21575780       0.00000000
Si       0.73593333      -0.51303726       3.23145156       0.00000000
Si       1.82211795      -1.36102950      -2.78816673       0.00000000
Si      -0.84589083       2.95741692      -2.07585100       0.00000000
Si       3.20596552       0.34424028      -1.89010476       0.00000000
Si      -1.11000060       1.04966244      -3.43509396       0.00000000
Si       2.86034481       0.14797836       2.44118195       0.00000000
