10
Lattice="16.28999089631971 0.0 0.0 0.0 16.28999089631971 0.0 0.0 0.0 34.61538196595647" Properties=species:S:1:pos:R:3:initial_magmoms:R:1 pbc="T T T"
Si       0.07592769       1.84067226      -1.43491223       0.00000000
Si       0.81186102       1.32763500       1.79653933       0.00000000
Si      -2.04711543      -1.30657203      -0.11890390       0.00000000
Si       1.79717796      -1.53730359      -0.71044650       0.00000000
Si       2.93627250       1.98865062       1.00626972       0.00000000
Si      -1.19136915      -3.21014161      -1.38485836       0.00000000
Si       2.26160586       2.70545949      -1.21915443       0.00000000
Si       0.67531824       0.00552231       3.72423641       0.00000000
Si      -0.23434794       1.15921269      -3.60498635       0.00000000
Si       0.90336195      -3.70466040      -0.38381557       0.00000000
