10
Lattice="16.28999089631971 0.0 0.0 0.0 16.28999089631971 0.0 0.0 0.0 34.61538196595647" Properties=species:S:1:pos:R:3:initial_magmoms:R:1 pbc="T T T"
Si      -1.41408603      -1.13476140       1.38506744       0.00000000
Si       0.66189269      -1.82482209      -1.32188952       0.00000000
Si       1.28460238       1.65163725       1.18070849       0.00000000
Si      -1.80507861       0.64562876      -1.60258581       0.00000000
Si      -0.23043834      -0.43399818      -3.13995963       0.00000000
Si       0.02068830      -2.41391736       2.66943383       0.00000000
Si      -2.68273494      -2.54464461      -0.05880815       0.00000000
Si      -2.54277126       2.68885088      -0.07531969       0.00000000
Si       2.69854343       0.31548068       2.64957151       0.00000000
Si      -2.72536587       0.32394294       2.67215113       0.00000000
