10
Lattice="16.28999089631971 0.0 0.0 0.0 16.28999089631971 0.0 0.0 0.0 34.61538196595647" Properties=species:S:1:pos:R:3:initial_magmoms:R:1 pbc="T T T"
Si      -1.13727006      -0.30962403       2.00925097       0.00000000
Si       0.22344993       1.83101229      -1.46447378       0.00000000
Si      -0.71972478      -1.74030957      -1.43688531       0.00000000
Si       2.19908484      -0.40645179       0.91104275       0.00000000
Si       1.60814880      -2.06283528      -1.72329314       0.00000000
Si       3.09874896      -0.27769563      -1.24421598       0.00000000
Si      -0.36386973      -2.68060095       2.09887024       0.00000000
Si      -0.80511696       3.32882892      -0.00619616       0.00000000
Si      -3.32510991       0.26619489       1.45668532       0.00000000
Si       2.53118907       1.96286355      -1.73610084       0.00000000
