10
Lattice="16.28999089631971 0.0 0.0 0.0 16.28999089631971 0.0 0.0 0.0 34.61538196595647" Properties=species:S:1:pos:R:3:initial_magmoms:R:1 pbc="T T T"
Si      -1.35537687       1.35762489      -1.36014296       0.00000000
Si       1.36055709      -1.35897696      -1.35955450       0.00000000
Si      -1.35879777      -1.36146933       1.37731220       0.00000000
Si       1.36813194       1.35848826       1.37911220       0.00000000
Si      -2.71415835      -2.71536381      -0.00498462       0.00000000
Si      -2.71453302       2.71530736       0.00100385       0.00000000
Si      -2.71306692      -0.00058644      -2.71720516       0.00000000
Si       2.71806661       2.71278999       0.00169615       0.00000000
Si       0.00187335       2.71425324      -2.71699746       0.00000000
Si       2.71704898      -2.71459818      -0.00301154       0.00000000
