10
Lattice="16.28999089631971 0.0 0.0 0.0 16.28999089631971 0.0 0.0 0.0 34.61538196595647" Properties=species:S:1:pos:R:3:initial_magmoms:R:1 pbc="T T T"
Si      -1.34809524      -1.59360183       1.10817746       0.00000000
Si       2.01717019       0.30784842       1.19374673       0.00000000
Si       0.63729738      -0.61659279      -2.20790876       0.00000000
Si      -1.22557815       2.06000312       0.48994639       0.00000000
Si      -0.94912056       1.88105258       2.82454752       0.00000000
Si       3.28643324       1.16051589      -0.69189264       0.00000000
Si      -3.27108087      -1.42618950      -0.35224632       0.00000000
Si      -1.49540571      -0.40747806       3.25658234       0.00000000
Si       1.42316349       2.11760945       2.66303205       0.00000000
Si       2.18413455       0.99038313      -2.82163982       0.00000000
