10
Lattice="16.28999089631971 0.0 0.0 0.0 16.28999089631971 0.0 0.0 0.0 34.61538196595647" Properties=species:S:1:pos:R:3:initial_magmoms:R:1 pbc="T T T"
Si      -1.35657431      -1.35501879       1.35678527       0.00000000
Si      -1.35408194       1.35801460      -1.35962373       0.00000000
Si       1.35873316       1.35944649       1.35643912       0.00000000
Si       1.36087855      -1.35586587      -1.35858527       0.00000000
Si      -2.71406888      -2.71181289      -0.00051923       0.00000000
Si       0.00140437      -2.71306722       2.71343208       0.00000000
Si       2.71510209      -2.71236675      -0.00124615       0.00000000
Si      -2.71372679       0.00219601       2.71384746       0.00000000
Si      -2.71270052       2.71708115      -0.00159231       0.00000000
Si       2.71658448       0.00201218       2.71360515       0.00000000
