10
Lattice="16.28999089631971 0.0 0.0 0.0 16.28999089631971 0.0 0.0 0.0 34.61538196595647" Properties=species:S:1:pos:R:3:initial_magmoms:R:1 pbc="T T T"
Si       1.35687197       1.35654975       1.35668142       0.00000000
Si      -1.35651816      -1.35751738       1.35768527       0.00000000
Si      -1.35751185       1.35755973      -1.35706219       0.00000000
Si       1.35735579      -1.35776498      -1.35723527       0.00000000
Si      -2.71468062       2.71441899       0.00058846       0.00000000
Si      -2.71407789      -0.00013032      -2.71526669       0.00000000
Si      -0.00125360       2.71412577      -2.71540516       0.00000000
Si       2.71540259       2.71425609       0.00051923       0.00000000
Si       2.71541888      -0.00074934      -2.71467823       0.00000000
Si      -2.71510416      -2.71501546       0.00017308       0.00000000
