10
Lattice="16.28999089631971 0.0 0.0 0.0 16.28999089631971 0.0 0.0 0.0 34.61538196595647" Properties=species:S:1:pos:R:3:initial_magmoms:R:1 pbc="T T T"
Si      -1.22420979      -0.14569776      -2.00990866       0.00000000
Si       2.34509211      -0.34757973      -0.22247318       0.00000000
Si      -0.80741385      -1.88247240       1.30032755       0.00000000
Si      -0.82114632       2.25719127       0.84291964       0.00000000
Si      -2.30470757      -0.58038012       2.63880127       0.00000000
Si      -1.58355090       2.14702200      -2.46067042       0.00000000
Si      -1.30100085       1.54408023       3.04999762       0.00000000
Si       3.26564001       0.81604755       1.53830843       0.00000000
Si      -2.86671746       2.51335152      -0.47160023       0.00000000
Si      -0.19564290      -1.64351439      -3.46818629       0.00000000
