10
Lattice="16.28999089631971 0.0 0.0 0.0 16.28999089631971 0.0 0.0 0.0 34.61538196595647" Properties=species:S:1:pos:R:3:initial_magmoms:R:1 pbc="T T T"
Si       0.79865635       0.86123601      -2.03434714       0.00000000
Si      -0.98645954      -1.96297758      -0.88888889       0.00000000
Si       1.40257389      -0.77895522       1.74984315       0.00000000
Si      -1.26280310       2.02095369       0.54605796       0.00000000
Si       2.35549002       1.34307792       2.15030873       0.00000000
Si      -1.30896896       1.14360687      -3.02005530       0.00000000
Si      -2.85591623       0.97184511       1.94230478       0.00000000
Si      -1.66112618      -1.24616871      -3.11431304       0.00000000
Si       0.50476846      -3.73578570      -0.27103859       0.00000000
Si       3.22216689       2.04338502       0.05728849       0.00000000
