10
Lattice="16.28999089631971 0.0 0.0 0.0 16.28999089631971 0.0 0.0 0.0 34.61538196595647" Properties=species:S:1:pos:R:3:initial_magmoms:R:1 pbc="T T T"
Si       0.08446365      -1.55751948      -1.76967778       0.00000000
Si       1.66469139       1.10519505       1.27916858       0.00000000
Si      -1.09317955      -1.58669487       1.39510248       0.00000000
Si      -1.69948683       1.81747530      -0.03094617       0.00000000
Si      -2.39777283      -0.16687476       2.72211851       0.00000000
Si       0.36297378       2.52389115       2.72329889       0.00000000
Si       2.57487885       2.81678535      -0.18903471       0.00000000
Si      -2.17738004       2.28574764      -2.27617033       0.00000000
Si       0.35194545      -2.89963629       2.70614004       0.00000000
Si      -1.92377407      -3.50277354       0.01693258       0.00000000
