10
Lattice="10.86 0.0 0.0 0.0 10.86 0.0 0.0 0.0 10.86" Properties=species:S:1:pos:R:3:initial_magmoms:R:1 pbc="T T T"
Si      -1.30994406      -1.44073104       1.16960028       0.00000000
Si      -1.30994406       1.27426896      -1.54539972       0.00000000
Si       1.40505594      -1.44073104      -1.54539972       0.00000000
Si       2.57471052       2.56054908      -0.34578240       0.00000000
Si      -2.68642734       2.57603544      -0.22866816       0.00000000
Si       0.04755594      -2.79823104       2.52710028       0.00000000
Si       3.00992502      -0.02925684       2.41279878       0.00000000
Si      -2.66744406      -2.79823104      -0.18789972       0.00000000
Si      -2.68604724       0.01801674       2.79706902       0.00000000
Si       0.04755594       2.63176896      -2.90289972       0.00000000
