10
Lattice="16.290000149 0.0 0.0 0.0 16.290000149 0.0 0.0 0.0 29.1751946751" Properties=species:S:1:pos:R:3:initial_magmoms:R:1 pbc="T T T"
Si      -1.08033652      -1.16649433       1.70564023       0.00000000
Si       0.87617395      -1.78149071      -1.28359186       0.00000000
Si       1.87133006       1.46442214       0.15836296       0.00000000
Si      -1.59830965       1.30238551      -1.21117903       0.00000000
H        0.47788344       2.30213540       1.78700985       0.00000000
H       -1.23354397      -0.37045089       2.98138397       0.00000000
H        2.59276529       1.54452007       1.48166226       0.00000000
Si       1.99482455      -0.34155243      -2.83600397       0.00000000
Si      -3.29111760      -1.08900280       0.89961713       0.00000000
Si      -0.28227312       2.65712708      -2.59685490       0.00000000
