10
Lattice="16.290000149 0.0 0.0 0.0 16.290000149 0.0 0.0 0.0 29.1751946751" Properties=species:S:1:pos:R:3:initial_magmoms:R:1 pbc="T T T"
Si       1.12956490      -0.06058251      -1.00607741       0.00000000
H        0.67435714       0.92434348       1.61896073       0.00000000
H       -0.92155789       1.76733470       0.44856862       0.00000000
Si      -2.27822168       1.19068498       0.17516787       0.00000000
Si      -2.73650826      -1.01708245       0.78630067       0.00000000
Si       0.13901886       0.66635875       3.00460742       0.00000000
Si       1.35555607      -2.19514268      -1.91718957       0.00000000
Si       3.19290519       0.63329005      -0.10929028       0.00000000
Si       0.90352486       1.45156933      -2.84218911       0.00000000
Si      -1.65954377      -0.92898613       2.88531005       0.00000000
