10
Lattice="16.290000149 0.0 0.0 0.0 16.290000149 0.0 0.0 0.0 29.1751946751" Properties=species:S:1:pos:R:3:initial_magmoms:R:1 pbc="T T T"
Si       1.56367711       0.77468725       1.59229460       0.00000000
Si      -0.91634509      -1.83723509       1.17039211       0.00000000
Si       1.15346233       0.12297321      -2.06055647       0.00000000
Si      -1.93147274       1.48820554      -0.31482953       0.00000000
Si      -1.94657357      -0.35100063       2.64301006       0.00000000
H       -2.83082736       0.49984236       1.75474208       0.00000000
H        1.85376944      -2.85545784      -0.13493528       0.00000000
Si      -0.04808808       0.94985362       3.27319427       0.00000000
Si       2.39697578       2.70096510       0.56719496       0.00000000
Si       2.68778486       1.96473692      -1.64422645       0.00000000
