10
Lattice="16.290000149 0.0 0.0 0.0 16.290000149 0.0 0.0 0.0 29.1751946751" Properties=species:S:1:pos:R:3:initial_magmoms:R:1 pbc="T T T"
Si       1.41941287      -1.33002964      -1.30205976       0.00000000
Si       1.37319814       1.32659245       1.36306510       0.00000000
Si      -1.35084826      -1.37499004       1.34806905       0.00000000
Si      -1.35109261       1.31931082      -1.40761562       0.00000000
Si       0.10739997      -2.69013062      -2.64722004       0.00000000
Si       0.00364896       2.70510113       2.68548914       0.00000000
Si       2.75392227       2.64481184       0.00055433       0.00000000
Si      -2.72051147      -0.01158219       2.68464306       0.00000000
Si      -2.71386515       2.69280218      -0.05817534       0.00000000
Si       0.01627371       2.66952377      -2.75783487       0.00000000
