10
Lattice="16.290000149 0.0 0.0 0.0 16.290000149 0.0 0.0 0.0 29.1751946751" Properties=species:S:1:pos:R:3:initial_magmoms:R:1 pbc="T T T"
H       -0.17896194       1.38756918       0.61054930       0.00000000
Si       0.83396656      -1.24429211       1.71331622       0.00000000
Si       1.89550442       0.01684712      -1.33873298       0.00000000
Si      -1.90030997      -0.54802167      -1.28624681       0.00000000
Si       0.64161424       1.12389924      -2.94132643       0.00000000
Si      -2.63024858       1.64193753      -0.88322067       0.00000000
Si      -0.69155938       2.67027637      -1.78447161       0.00000000
Si       1.87305680       0.60951479       2.66585132       0.00000000
Si       2.33228819      -2.27248434      -1.03895786       0.00000000
Si      -0.99820234      -2.26595205       2.65631395       0.00000000
