10
Lattice="16.290000149 0.0 0.0 0.0 16.290000149 0.0 0.0 0.0 29.1751946751" Properties=species:S:1:pos:R:3:initial_magmoms:R:1 pbc="T T T"
Si       0.65368513      -0.42367032       2.13138218       0.00000000
Si      -1.07150734      -1.75954808      -1.06378595       0.00000000
Si      -1.70127875       1.59769063      -0.01566708       0.00000000
Si       1.78652432       0.58785724      -1.44084616       0.00000000
Si      -0.30828825       3.03336093      -1.19186505       0.00000000
H        3.08390880       1.13813344      -0.52051465       0.00000000
H       -0.55890991      -3.04225527       1.33123496       0.00000000
Si      -1.99894592      -0.71633647      -2.89791374       0.00000000
Si      -1.25413453      -1.21396339       3.25318300       0.00000000
Si       0.76168783       1.92323000      -3.05878576       0.00000000
