10
Lattice="16.290000149 0.0 0.0 0.0 16.290000149 0.0 0.0 0.0 29.1751946751" Properties=species:S:1:pos:R:3:initial_magmoms:R:1 pbc="T T T"
Si       1.34278471       1.37795482      -1.31501355       0.00000000
Si       1.54460152      -1.32193351       1.18699280       0.00000000
Si      -1.36252819       1.37073835       1.34515153       0.00000000
Si      -1.40556637      -1.32639697      -1.35787191       0.00000000
Si       2.62681139      -2.74302426      -0.31051160       0.00000000
Si       2.57531870       2.81062776       0.11127419       0.00000000
Si      -0.05590728       2.71993644      -2.67463597       0.00000000
Si       2.63316449       0.03701088      -2.76455392       0.00000000
Si      -2.70734915       0.08433333       2.72012010       0.00000000
Si      -2.77915548      -2.64823274       0.00574751       0.00000000
