10
Lattice="16.290000149 0.0 0.0 0.0 16.290000149 0.0 0.0 0.0 29.1751946751" Properties=species:S:1:pos:R:3:initial_magmoms:R:1 pbc="T T T"
Si       1.36061738      -1.46721099       1.14818979       0.00000000
Si      -1.18826510      -1.33709168      -1.49271966       0.00000000
Si       1.40740226       1.28656466      -1.39582884       0.00000000
Si      -1.22915952       1.27382588       1.60212664       0.00000000
H        1.59885863       1.49116707       2.11377203       0.00000000
Si       2.21517449       0.18606438       2.55119572       0.00000000
Si      -2.51721716       2.61766945       0.10144215       0.00000000
Si      -2.80330214      -2.48101915      -0.33875319       0.00000000
Si       0.04839759       2.61325486      -2.76960123       0.00000000
Si      -2.71007447      -0.07439480      -2.73412419       0.00000000
