10
Lattice="16.290000149 0.0 0.0 0.0 16.290000149 0.0 0.0 0.0 29.1751946751" Properties=species:S:1:pos:R:3:initial_magmoms:R:1 pbc="T T T"
Si       1.43064320      -1.21134070       1.38532577       0.00000000
Si      -1.43887291       1.24137946       1.36784983       0.00000000
Si      -1.35919754      -1.40911759      -1.31302964       0.00000000
Si       1.36771493       1.42812802      -1.29998832       0.00000000
H       -1.18588758      -1.45059193       3.06301616       0.00000000
Si      -0.04730779      -2.41495994       2.77286885       0.00000000
Si      -0.01691717       2.67628412       2.53544112       0.00000000
Si       2.57962578      -2.63422334      -0.07804365       0.00000000
Si       2.56550235       0.02603142      -2.77628235       0.00000000
Si      -2.72941559       2.65921220       0.01490852       0.00000000
