10
Lattice="16.290000149 0.0 0.0 0.0 16.290000149 0.0 0.0 0.0 29.1751946751" Properties=species:S:1:pos:R:3:initial_magmoms:R:1 pbc="T T T"
Si      -1.30271131      -1.35386191       1.43461726       0.00000000
Si       1.36047077      -1.45831339      -1.28697327       0.00000000
Si       1.39039224       1.28700775       1.43461726       0.00000000
Si      -1.30062619       1.52989165      -1.31845914       0.00000000
Si       2.70585047       0.00363267      -2.52083631       0.00000000
Si      -2.53228052       2.73073443       0.27802502       0.00000000
Si      -2.64947078      -2.68672601       0.04563584       0.00000000
Si       2.80282485       2.67747329       0.17849092       0.00000000
Si      -2.64642455      -0.05077593       2.85862934       0.00000000
Si       0.10952223       2.63208935       2.89156813       0.00000000
