10
Lattice="16.290000149 0.0 0.0 0.0 16.290000149 0.0 0.0 0.0 29.1751946751" Properties=species:S:1:pos:R:3:initial_magmoms:R:1 pbc="T T T"
Si       1.39299049       1.43567029      -1.17619797       0.00000000
Si       1.70127875      -1.59769063       0.01566708       0.00000000
Si      -0.95707009       1.27065259       1.75389600       0.00000000
Si      -1.59396022      -0.81283843      -1.56160230       0.00000000
Si      -2.07174593       1.21692817      -2.62051599       0.00000000
Si      -0.17316270       2.71640639      -2.30151441       0.00000000
Si       0.62977141      -3.35723871      -1.04811887       0.00000000
Si      -2.40885119       2.68758938       0.53656101       0.00000000
Si      -0.29766717      -2.31402710      -2.88224666       0.00000000
Si       2.35496387      -2.02136096       2.14704926       0.00000000
