10
Lattice="16.290000149 0.0 0.0 0.0 16.290000149 0.0 0.0 0.0 29.1751946751" Properties=species:S:1:pos:R:3:initial_magmoms:R:1 pbc="T T T"
Si       1.13857979      -0.96436801      -0.29014731       0.00000000
Si      -1.89009777       1.63489699      -0.26030109       0.00000000
H       -1.15302413      -1.80724520       1.93028923       0.00000000
Si      -1.53298838       1.39984858       2.10189773       0.00000000
Si      -0.18078072      -2.65833254      -1.42891351       0.00000000
Si       2.42750161      -0.81213796       1.73528223       0.00000000
Si       2.61653077       0.23925123      -1.67769039       0.00000000
Si      -0.25298533       2.69197139      -1.69516634       0.00000000
Si      -1.08367760      -0.73296856       2.99136189       0.00000000
Si      -2.95929193      -0.05139495      -1.64469325       0.00000000
