10
Lattice="16.290000149 0.0 0.0 0.0 16.290000149 0.0 0.0 0.0 29.1751946751" Properties=species:S:1:pos:R:3:initial_magmoms:R:1 pbc="T T T"
Si       1.41243261       1.39046554      -1.25612634       0.00000000
Si       1.36519161      -1.34835589       1.37146755       0.00000000
Si      -1.28087001       1.34508160       1.45695087       0.00000000
Si      -1.39039224      -1.28700775      -1.43461726       0.00000000
Si      -2.69310355      -2.64086966       0.00000000       0.00000000
Si      -2.59772560       2.77986572       0.18065281       0.00000000
Si       0.13355682       2.76379563      -2.64345644       0.00000000
Si       2.74210387       0.07597656      -2.67577964       0.00000000
Si       2.71792951      -2.71751411       0.01368317       0.00000000
Si       2.71371040       2.71762326       0.16959541       0.00000000
