10
Lattice="16.290000149 0.0 0.0 0.0 16.290000149 0.0 0.0 0.0 29.1751946751" Properties=species:S:1:pos:R:3:initial_magmoms:R:1 pbc="T T T"
Si       1.41701824      -1.34310628       1.25430289       0.00000000
Si      -1.49791438       1.23580339       1.27986911       0.00000000
Si      -1.03909024      -1.85380690      -0.95253510       0.00000000
Si       0.86581351       1.72813607      -1.38203218       0.00000000
H       -2.05201874       0.77805439      -2.05530202       0.00000000
Si      -1.87305680      -0.60951479      -2.66585132       0.00000000
Si      -0.07819200       2.66489253       2.51545903       0.00000000
Si       2.64867257      -2.54394905      -0.34218127       0.00000000
Si      -0.83942371       3.39663933      -1.25515480       0.00000000
Si      -0.04324995      -2.77958390       2.46956645       0.00000000
