10
Lattice="16.290000149 0.0 0.0 0.0 16.290000149 0.0 0.0 0.0 29.1751946751" Properties=species:S:1:pos:R:3:initial_magmoms:R:1 pbc="T T T"
Si       1.32032080       1.34091136       1.39444302       0.00000000
Si      -1.35897046       1.33911946      -1.38107203       0.00000000
Si       1.41911965      -1.38186442      -1.28406450       0.00000000
Si      -1.37411690      -1.36088290       1.36182515       0.00000000
Si       0.03139083      -2.65639403      -2.66192142       0.00000000
Si       2.67586058       2.65536776      -0.00513192       0.00000000
Si       0.12878874       2.53908974      -2.81594603       0.00000000
Si       2.62200584      -2.77899258       0.15740601       0.00000000
Si      -2.86523184      -0.04626360      -2.54883399       0.00000000
Si       2.67270032      -0.02627577       2.75103122       0.00000000
