10
Lattice="16.290000149 0.0 0.0 0.0 16.290000149 0.0 0.0 0.0 29.1751946751" Properties=species:S:1:pos:R:3:initial_magmoms:R:1 pbc="T T T"
H       -0.06934653      -1.07427664      -1.06107266       0.00000000
Si       2.19730925       0.18904545       0.65547910       0.00000000
Si      -1.62075727      -0.67556260       1.56195240       0.00000000
Si      -0.44931078       2.13281714      -0.88946416       0.00000000
H       -1.89201836       2.41697990      -0.44696398       0.00000000
H        1.08367760       0.73296856      -2.99136189       0.00000000
Si      -3.15600834      -1.39585753      -0.04755557       0.00000000
H       -1.28793628      -3.25132602       0.67231319       0.00000000
Si       2.99154450      -2.07228350       0.44124564       0.00000000
Si       3.51117921      -0.07916940      -1.25607966       0.00000000
