10
Lattice="16.290000149 0.0 0.0 0.0 16.290000149 0.0 0.0 0.0 29.1751946751" Properties=species:S:1:pos:R:3:initial_magmoms:R:1 pbc="T T T"
Si       1.22915952      -1.27382588      -1.60212664       0.00000000
Si      -1.28805764       1.34384356      -1.50068449       0.00000000
Si      -1.43466764      -1.42692582       1.34130040       0.00000000
Si       1.31936051       1.69396454       1.13876620       0.00000000
H        2.82801815       0.21734118       0.51164539       0.00000000
H        0.18078072       2.65833254       1.42891351       0.00000000
H       -0.97224341       0.85108735       3.35920274       0.00000000
Si      -2.68971442      -2.50779991      -0.34394637       0.00000000
Si       3.44433401      -1.08776150       0.94906908       0.00000000
Si       2.58977689      -2.74103688      -0.45393685       0.00000000
