10
Lattice="16.290000149 0.0 0.0 0.0 16.290000149 0.0 0.0 0.0 29.1751946751" Properties=species:S:1:pos:R:3:initial_magmoms:R:1 pbc="T T T"
Si      -1.36511830      -1.34715858       1.34856502       0.00000000
Si      -1.36304947       1.36475992      -1.33534866       0.00000000
Si       1.35887923       1.34298019       1.36478643       0.00000000
Si       1.36256077      -1.36403502      -1.34462637       0.00000000
Si       0.00982287      -2.69298137       2.68347606       0.00000000
Si       2.71233389       0.02254536      -2.68096699       0.00000000
Si       0.00778662       2.72220563      -2.67352731       0.00000000
Si      -2.74836738       0.01392795      -2.65987332       0.00000000
Si      -0.00081450       2.69457779       2.71953660       0.00000000
Si       2.71526609       2.71658558       0.00536824       0.00000000
