10
Lattice="16.290000149 0.0 0.0 0.0 16.290000149 0.0 0.0 0.0 29.1751946751" Properties=species:S:1:pos:R:3:initial_magmoms:R:1 pbc="T T T"
Si      -1.25504677      -1.08087409      -1.68524677       0.00000000
Si       0.58334491      -1.74683862       1.51118756       0.00000000
Si      -1.99588340       0.88212306       0.98644251       0.00000000
Si       1.43466764       1.42692582      -1.34130040       0.00000000
H        0.46242423       2.27801317       2.01790234       0.00000000
Si      -2.47806740      -2.59419556      -0.42038538       0.00000000
Si      -2.73799065       2.22355570      -0.79283592       0.00000000
Si      -3.50700897      -0.97300660       0.90877814       0.00000000
Si      -2.67116906       0.53411978      -2.60531571       0.00000000
H       -0.75616552       0.10096379       3.75128818       0.00000000
