10
Lattice="16.290000149 0.0 0.0 0.0 16.290000149 0.0 0.0 0.0 29.1751946751" Properties=species:S:1:pos:R:3:initial_magmoms:R:1 pbc="T T T"
Si      -1.36058968      -1.36344043       1.34121287       0.00000000
Si      -1.36026388       1.35331620      -1.35206605       0.00000000
Si       1.33174009       1.35441414       1.38383783       0.00000000
Si       1.35104374      -1.36088290      -1.35976830       0.00000000
Si       2.68358204       2.70555725       0.01061977       0.00000000
Si      -2.71300178       0.02436984       2.67603638       0.00000000
Si       0.02635722      -2.70674642       2.68721048       0.00000000
Si      -2.70681158      -0.03473028      -2.69155758       0.00000000
Si       2.66289374      -0.01268991       2.75623899       0.00000000
Si      -0.01049076       2.73989657      -2.68840666       0.00000000
