10
Lattice="16.290000149 0.0 0.0 0.0 16.290000149 0.0 0.0 0.0 29.1751946751" Properties=species:S:1:pos:R:3:initial_magmoms:R:1 pbc="T T T"
Si      -1.44583525       1.19378008       1.35656165       0.00000000
Si      -1.35847198      -1.34604271      -1.34077525       0.00000000
Si       1.27892791      -1.49529169       1.33771127       0.00000000
Si       1.31299030       1.36607941      -1.48475483       0.00000000
Si       2.16054272      -0.50834574      -2.60231066       0.00000000
Si       0.36198009      -2.10369062      -2.72160804       0.00000000
Si      -0.01918962       2.55313172       2.63623558       0.00000000
Si      -2.80350088       2.43600662      -0.10027514       0.00000000
Si       2.69192252      -0.19904751       2.68117413       0.00000000
Si      -2.79121496      -0.26816598       2.59042469       0.00000000
