10
Lattice="16.290000149 0.0 0.0 0.0 16.290000149 0.0 0.0 0.0 29.1751946751" Properties=species:S:1:pos:R:3:initial_magmoms:R:1 pbc="T T T"
H       -0.61631587       1.30510268      -0.43742369       0.00000000
Si      -0.85455712      -1.65327537      -1.40300594       0.00000000
Si       2.30804867       0.09110671      -0.35978850       0.00000000
Si      -0.74743408      -0.57631577       2.15881853       0.00000000
H        1.40566411       1.66173966      -1.85116610       0.00000000
Si       2.36534060      -1.97518207       0.92937583       0.00000000
Si      -2.21517449      -0.18606438      -2.55119572       0.00000000
Si      -2.12497350       2.78172604       0.18969712       0.00000000
Si       1.32069547      -1.30236922       3.00230258       0.00000000
Si       0.50196006       2.56246264      -2.66121538       0.00000000
