10
Lattice="16.290000149 0.0 0.0 0.0 16.290000149 0.0 0.0 0.0 29.1751946751" Properties=species:S:1:pos:R:3:initial_magmoms:R:1 pbc="T T T"
Si       0.17896194      -1.38756918      -0.61054930       0.00000000
Si      -0.69522463       1.82829188       1.92194804       0.00000000
Si      -0.51259743       1.28270719      -2.39502091       0.00000000
Si      -2.53426790       0.94688884       0.73585676       0.00000000
Si      -2.45128664       0.25436835      -1.49376997       0.00000000
Si       1.21259503       2.61858494       0.80014722       0.00000000
Si       2.05201874      -0.77805439       2.05530202       0.00000000
Si       1.01292850      -2.63186129       1.10276693       0.00000000
Si       2.91783225       0.95008168       0.67326984       0.00000000
Si       2.07446636      -1.37072206      -1.94928228       0.00000000
