10
Lattice="16.290000149 0.0 0.0 0.0 16.290000149 0.0 0.0 0.0 29.1751946751" Properties=species:S:1:pos:R:3:initial_magmoms:R:1 pbc="T T T"
Si      -1.36055710      -1.35412255      -1.35346646       0.00000000
Si      -1.36862065       1.35374788       1.35121997       0.00000000
Si       1.34781832      -1.36028017       1.36653694       0.00000000
Si       1.35446464       1.34410420      -1.37628146       0.00000000
Si       2.68886000       2.69545745       0.01768017       0.00000000
Si       0.01824480      -2.71336016      -2.68931109       0.00000000
Si      -2.69154785      -2.71173116       0.02981705       0.00000000
Si       2.71272485      -0.00485442       2.71387661       0.00000000
Si      -0.02200779       2.69151527      -2.73546625       0.00000000
Si      -2.72017264       2.71303436      -0.00799400       0.00000000
