10
Lattice="16.290000149 0.0 0.0 0.0 16.290000149 0.0 0.0 0.0 29.1751946751" Properties=species:S:1:pos:R:3:initial_magmoms:R:1 pbc="T T T"
Si       1.34793235       1.36174627       1.35078234       0.00000000
Si      -1.34281729       1.35793441      -1.36394035       0.00000000
Si       1.35904213      -1.35531172      -1.35422501       0.00000000
Si      -1.36743637      -1.36570474       1.34380947       0.00000000
Si      -0.03352482      -2.69858513      -2.68373863       0.00000000
Si       2.69068448      -0.02153538       2.69450428       0.00000000
Si      -2.67786637      -0.01894527      -2.70906270       0.00000000
Si      -0.04090419       2.71282259       2.68362193       0.00000000
Si       2.69654888       2.70938540      -0.02722046       0.00000000
Si       2.68876226      -2.72531702       0.01838037       0.00000000
