10
Lattice="16.290000149 0.0 0.0 0.0 16.290000149 0.0 0.0 0.0 29.1751946751" Properties=species:S:1:pos:R:3:initial_magmoms:R:1 pbc="T T T"
Si       0.88425379      -0.85084300       0.88826798       0.00000000
H       -1.89775244      -0.42538077      -1.24064598       0.00000000
Si       0.89935462       0.98836318      -2.06957161       0.00000000
Si      -0.98868898      -0.35355816      -2.45698902       0.00000000
Si      -0.71635276       2.51891295      -0.99102301       0.00000000
Si      -1.44985888       2.17447393       1.27116323       0.00000000
Si       1.91448227      -2.33707745      -0.58434997       0.00000000
Si      -0.51038199      -2.08295345       2.31575190       0.00000000
Si       2.78273928       0.45001125       1.51845218       0.00000000
Si       2.83082736      -0.49984236      -1.75474208       0.00000000
