10
Lattice="16.290000149 0.0 0.0 0.0 16.290000149 0.0 0.0 0.0 29.1751946751" Properties=species:S:1:pos:R:3:initial_magmoms:R:1 pbc="T T T"
Si      -1.41299461      -1.29624418      -1.34346287       0.00000000
Si      -1.38207619       1.35654976       1.32429126       0.00000000
Si       1.32206383       1.40297626      -1.34245895       0.00000000
Si       1.37132479      -1.41200092       1.30404951       0.00000000
Si       2.62583399       2.58756878       0.21040859       0.00000000
Si       2.66320325       0.04807179      -2.68756350       0.00000000
Si      -0.10614564      -2.72137484      -2.64569710       0.00000000
Si      -2.69192252       0.19904751      -2.68117413       0.00000000
Si      -2.73528651      -0.04131144       2.64452425       0.00000000
Si      -0.04500927       2.68133402       2.72916149       0.00000000
