10
Lattice="16.290000149 0.0 0.0 0.0 16.290000149 0.0 0.0 0.0 29.1751946751" Properties=species:S:1:pos:R:3:initial_magmoms:R:1 pbc="T T T"
Si       1.34482096       1.28640502      -1.37496857       0.00000000
Si      -1.53787375       1.26221437       1.20365183       0.00000000
Si       1.03291633      -0.83230498       1.95042011       0.00000000
Si      -1.40178709      -1.39312081      -1.30917851       0.00000000
Si      -0.79281802      -2.12739257       2.58667276       0.00000000
Si      -2.42888789      -0.44790984       2.51942394       0.00000000
Si       2.59923242       2.60532325       0.09411918       0.00000000
Si      -0.08070066       2.64936816      -2.67282711       0.00000000
Si       2.70734915      -0.08433333      -2.72012010       0.00000000
Si      -0.07180632      -2.73256607      -2.71437259       0.00000000
