10
Lattice="16.290000149 0.0 0.0 0.0 16.290000149 0.0 0.0 0.0 29.1751946751" Properties=species:S:1:pos:R:3:initial_magmoms:R:1 pbc="T T T"
Si       1.43656347      -1.35307999       1.28382527       0.00000000
Si      -1.25716447      -1.36611199      -1.45770943       0.00000000
Si       1.37937205       1.32794452      -1.38868092       0.00000000
Si      -1.43291728       1.27970983       1.41391746       0.00000000
Si       0.09482409      -2.77438251       2.57663649       0.00000000
Si      -2.68723100       2.67429837      -0.01928480       0.00000000
Si      -0.02739978       2.71468454       2.65710168       0.00000000
Si      -2.59644683      -2.81707860      -0.20667708       0.00000000
Si      -2.77022856      -0.31439700       2.65021633       0.00000000
Si      -2.64411137      -0.02280600      -2.80370703       0.00000000
