10
Lattice="16.290000149 0.0 0.0 0.0 16.290000149 0.0 0.0 0.0 29.1751946751" Properties=species:S:1:pos:R:3:initial_magmoms:R:1 pbc="T T T"
Si       1.38207619      -1.35654976      -1.32429126       0.00000000
Si       1.33706692       1.32478426       1.40487023       0.00000000
Si      -1.35321031      -1.39786120       1.32023299       0.00000000
Si      -1.32903595       1.39562947      -1.36922981       0.00000000
Si      -0.03091842      -2.65279394      -2.66775413       0.00000000
Si      -2.65870721       2.71011845       0.05042349       0.00000000
Si       2.70414002       0.04642650      -2.66675021       0.00000000
Si      -2.70594821      -0.02870298       2.67801738       0.00000000
Si      -2.75568159       0.03627783      -2.64890374       0.00000000
Si       2.68705181       2.71982510       0.09429423       0.00000000
