10
Lattice="16.290000149 0.0 0.0 0.0 16.290000149 0.0 0.0 0.0 29.1751946751" Properties=species:S:1:pos:R:3:initial_magmoms:R:1 pbc="T T T"
Si      -1.49045356       1.26309403       1.28490475       0.00000000
Si       1.29552840       1.35596332      -1.44644780       0.00000000
Si      -1.42759045      -1.27096210      -1.40067192       0.00000000
Si       1.28805764      -1.34384356       1.50068449       0.00000000
H        1.46883836       1.31448898       2.92959800       0.00000000
Si      -2.88460065      -0.54721369       2.04914897       0.00000000
Si      -2.81777907      -2.23664960       0.23666918       0.00000000
Si       2.51721716      -2.61766945      -0.10144215       0.00000000
Si       2.60741815       0.35012097       2.63945069       0.00000000
Si       2.65472594       2.76508092      -0.13341817       0.00000000
