10
Lattice="16.290000149 0.0 0.0 0.0 16.290000149 0.0 0.0 0.0 29.1751946751" Properties=species:S:1:pos:R:3:initial_magmoms:R:1 pbc="T T T"
Si      -0.72143524      -0.08009793      -1.32329930       0.00000000
H       -2.11488185       0.75761533       0.30534759       0.00000000
H        1.14898258       1.63139464      -1.12347840       0.00000000
H        1.79659154       1.20412423      -1.07802344       0.00000000
Si      -1.51472566       0.84856240       1.70575693       0.00000000
Si       0.25935309      -2.68239287       1.44402626       0.00000000
Si       2.25044723      -2.08319780       0.27407178       0.00000000
Si       0.88456330      -0.87169420      -2.84697385       0.00000000
Si       0.38385756       2.34804062       2.02475851       0.00000000
Si      -1.03693996      -1.18120420       2.76467062       0.00000000
