10
Lattice="16.290000149 0.0 0.0 0.0 16.290000149 0.0 0.0 0.0 29.1751946751" Properties=species:S:1:pos:R:3:initial_magmoms:R:1 pbc="T T T"
Si      -0.11218923       2.30533964       0.23970340       0.00000000
Si       1.56348163       0.05703129      -1.82846780       0.00000000
Si       0.28906605      -0.88651810       2.24173443       0.00000000
Si      -2.12317346      -0.97518457      -0.67604761       0.00000000
H        0.97494022      -2.79735141       0.23716516       0.00000000
H        2.57688254      -1.79489738       0.59957943       0.00000000
Si      -1.85878676       1.97516741       1.73017657       0.00000000
Si      -1.90534358      -0.17018163       2.70935445       0.00000000
Si       3.15240825      -1.03158055      -0.55006912       0.00000000
Si      -1.04096359      -2.39627531      -2.17355200       0.00000000
