10
Lattice="16.290000149 0.0 0.0 0.0 16.290000149 0.0 0.0 0.0 29.1751946751" Properties=species:S:1:pos:R:3:initial_magmoms:R:1 pbc="T T T"
Si       1.41423265      -1.18040599      -1.46529498       0.00000000
Si      -1.31563743      -1.42742755       1.34693121       0.00000000
Si      -1.84210580       1.17238642      -0.93567767       0.00000000
Si       1.44699184       1.44109486       1.27615219       0.00000000
H        0.80282008       2.59906952      -1.44393873       0.00000000
Si      -0.47804634       2.56028303      -2.26487036       0.00000000
Si      -2.77135257       1.98775469       1.06104348       0.00000000
Si      -2.48617103       0.16420239       2.63352812       0.00000000
Si      -0.12380400      -2.49831587      -2.65074149       0.00000000
Si       2.80085376      -2.49735476      -0.03754848       0.00000000
