10
Lattice="16.290000149 0.0 0.0 0.0 16.290000149 0.0 0.0 0.0 29.1751946751" Properties=species:S:1:pos:R:3:initial_magmoms:R:1 pbc="T T T"
Si       1.34428339      -1.33030657      -1.38675535       0.00000000
Si      -1.36270738       1.34025976      -1.36359025       0.00000000
Si      -1.35277048      -1.39307194       1.32487477       0.00000000
Si       1.37119447       1.34780203       1.35530449       0.00000000
Si      -2.73326654      -0.04790889       2.64563583       0.00000000
Si       2.68962563      -2.71075376      -0.03232612       0.00000000
Si      -2.69799869      -0.06406857      -2.70203148       0.00000000
Si      -2.71841006       2.69296508       0.00189639       0.00000000
Si       0.02586852       2.71331129       2.70489065       0.00000000
Si      -0.00700470       2.71106327      -2.70961703       0.00000000
