10
Lattice="16.290000149 0.0 0.0 0.0 16.290000149 0.0 0.0 0.0 29.1751946751" Properties=species:S:1:pos:R:3:initial_magmoms:R:1 pbc="T T T"
Si      -1.32160445      -1.39574350      -1.28475887       0.00000000
Si       1.39758753      -1.20322828       1.41537622       0.00000000
Si      -1.22316887       1.09618669       1.65014901       0.00000000
Si       1.45569396       1.41494941      -1.18255817       0.00000000
H       -2.37260268       1.99247879       1.02469119       0.00000000
Si       2.06466304       0.68067766       2.71329310       0.00000000
Si       0.42859316       2.36016038       2.64604428       0.00000000
Si      -2.62886068      -0.02596626      -2.63250699       0.00000000
Si       0.09227959      -2.70580160      -2.59702995       0.00000000
Si       0.10693571       2.74817190      -2.58150875       0.00000000
