10
Lattice="16.290000149 0.0 0.0 0.0 16.290000149 0.0 0.0 0.0 29.1751946751" Properties=species:S:1:pos:R:3:initial_magmoms:R:1 pbc="T T T"
Si      -1.67088649      -0.78284854       1.44452224       0.00000000
Si      -0.52351662       0.67271185      -2.22802209       0.00000000
Si       1.10733068       1.70908166       1.24630597       0.00000000
Si       1.41391826      -1.94831660      -0.00627267       0.00000000
H       -2.85231875      -1.31975065       0.39226049       0.00000000
Si       2.46322233       0.30076227       2.55965653       0.00000000
Si       0.89772073      -2.85713571      -2.09965124       0.00000000
Si       3.47080770      -0.93916738       0.71645526       0.00000000
Si      -0.53079825      -2.28459107       2.82676857       0.00000000
H        2.86589484      -0.37655964      -2.38653092       0.00000000
