10
Lattice="16.290000149 0.0 0.0 0.0 16.290000149 0.0 0.0 0.0 29.1751946751" Properties=species:S:1:pos:R:3:initial_magmoms:R:1 pbc="T T T"
H       -1.18143226      -0.53690211      -1.05226175       0.00000000
Si      -1.53717328       1.27231417       1.19761257       0.00000000
Si       1.14008824      -1.50174253       1.38224633       0.00000000
Si       1.67088649       0.78284854      -1.44452224       0.00000000
Si      -2.47881674      -1.08717832      -1.97259326       0.00000000
Si       3.08480475      -1.16546806      -1.45079491       0.00000000
Si      -0.14180445       2.59387301       2.56273160       0.00000000
Si       2.64634962      -0.11635947       2.55000829       0.00000000
Si       2.77821717       2.49193019      -0.19821627       0.00000000
Si       2.40284344      -2.92949589       0.05479102       0.00000000
