10
Lattice="16.290000149 0.0 0.0 0.0 16.290000149 0.0 0.0 0.0 29.1751946751" Properties=species:S:1:pos:R:3:initial_magmoms:R:1 pbc="T T T"
H       -1.18117162       0.54201717      -0.79079365       0.00000000
Si       1.33012738      -1.04941810      -1.62572937       0.00000000
Si       1.26899101       1.60801849       1.25039049       0.00000000
H       -1.75042568       0.65739925       1.53155184       0.00000000
Si      -0.69864553      -1.85134223       1.41301303       0.00000000
H       -0.51746814       2.24321447      -1.92162420       0.00000000
H        1.51627321      -1.08714574       2.56327425       0.00000000
H       -2.11941047       1.24076044      -2.28403847       0.00000000
Si      -3.06137973       1.11404053       0.91303772       0.00000000
Si       2.55704132       0.00566892       2.35426316       0.00000000
