10
Lattice="16.290000149 0.0 0.0 0.0 16.290000149 0.0 0.0 0.0 29.1751946751" Properties=species:S:1:pos:R:3:initial_magmoms:R:1 pbc="T T T"
Si       0.84507634      -1.84482623       1.12473293       0.00000000
Si      -1.72045208       0.75764791       1.38083279       0.00000000
Si      -1.07696449      -0.08809632      -2.09900938       0.00000000
Si       1.79856263       1.59534487       0.11929737       0.00000000
H        2.33390090       1.85332961      -1.26634932       0.00000000
H       -1.15395103      -3.02068731      -1.06311492       0.00000000
H        1.65954377       0.92898613      -2.88531005       0.00000000
Si       2.56090205      -2.28739295      -0.39999192       0.00000000
Si      -0.36198009       2.10369062       2.72160804       0.00000000
Si      -0.61867792       2.11967111      -2.71014218       0.00000000
