10
Lattice="16.290000149 0.0 0.0 0.0 16.290000149 0.0 0.0 0.0 29.1751946751" Properties=species:S:1:pos:R:3:initial_magmoms:R:1 pbc="T T T"
Si       1.25389018      -1.10705212       1.60259344       0.00000000
Si      -1.80841808      -1.32748189      -0.60710663       0.00000000
Si       1.21896442       1.32177061      -1.49482027       0.00000000
Si      -1.33317361       1.54637713       1.15685482       0.00000000
Si      -0.64161424      -1.12389924       2.94132643       0.00000000
H        3.08703648      -0.53369787      -0.77495152       0.00000000
Si      -0.19271070      -2.85803166      -1.68565522       0.00000000
Si       2.75421549       2.04206555       0.11468769       0.00000000
Si      -3.02967939       0.54413487      -1.55786787       0.00000000
Si      -2.54192420      -1.67192091       1.65507962       0.00000000
