10
Lattice="16.290000149 0.0 0.0 0.0 16.290000149 0.0 0.0 0.0 29.1751946751" Properties=species:S:1:pos:R:3:initial_magmoms:R:1 pbc="T T T"
Si       1.31489623      -1.26376192       1.47267338       0.00000000
Si      -0.85745674      -1.93652264      -1.04047205       0.00000000
Si      -1.43163037       1.37181349       1.28431249       0.00000000
Si       1.21702591       1.43449741      -1.44249456       0.00000000
Si       2.57297294      -2.66470193       0.10804742       0.00000000
Si       2.61239474       2.75605626      -0.07737553       0.00000000
Si      -0.05973543       2.77803147       2.59657774       0.00000000
Si       2.75419920       0.16218324      -2.64010713       0.00000000
Si      -0.09622503      -2.66826944       2.73014178       0.00000000
Si      -1.51114186      -1.51285231      -3.17185423       0.00000000
