10
Lattice="16.290000149 0.0 0.0 0.0 16.290000149 0.0 0.0 0.0 29.1751946751" Properties=species:S:1:pos:R:3:initial_magmoms:R:1 pbc="T T T"
Si       1.32998077       1.33229395      -1.39985502       0.00000000
Si      -1.19940013       1.47266488       1.42929279       0.00000000
Si       1.47149200      -1.20966283       1.45473356       0.00000000
Si      -1.56496402      -1.12365163      -1.46649116       0.00000000
H        1.82723303      -3.01887912      -0.79514076       0.00000000
Si      -2.52599258       0.09005112       2.80523581       0.00000000
Si      -0.17259255       2.64359009      -2.69570046       0.00000000
Si       2.92297989       2.46086516      -0.05802946       0.00000000
Si      -2.59745681       2.89771410       0.20440141       0.00000000
H        2.02209401       3.20285838       0.92021482       0.00000000
