10
Lattice="16.290000149 0.0 0.0 0.0 16.290000149 0.0 0.0 0.0 29.1751946751" Properties=species:S:1:pos:R:3:initial_magmoms:R:1 pbc="T T T"
Si      -1.43650108       1.44163243       1.13325209       0.00000000
Si      -1.36239787      -1.31401657      -1.38987710       0.00000000
Si       1.34702011       1.36837630      -1.36971704       0.00000000
Si       1.32781420      -1.32348106       1.43693669       0.00000000
H       -0.71579890       2.32648895       2.09979711       0.00000000
Si      -2.70500339      -2.65429262      -0.02482809       0.00000000
Si       2.71189406      -2.67594203       0.08096117       0.00000000
Si       0.00713502      -2.67654476      -2.71495609       0.00000000
Si       2.73103482       0.02445129      -2.70109787       0.00000000
Si       2.73779517       2.72088614      -0.03941569       0.00000000
