10
Lattice="16.290000149 0.0 0.0 0.0 16.290000149 0.0 0.0 0.0 29.1751946751" Properties=species:S:1:pos:R:3:initial_magmoms:R:1 pbc="T T T"
Si      -1.37868787      -1.36329382      -1.30474388       0.00000000
Si      -1.38681658       1.31344642       1.35734676       0.00000000
Si       1.32879160      -1.36891387       1.37415167       0.00000000
Si       1.32471910       1.38725641      -1.38255413       0.00000000
Si      -2.69566922       0.02818170      -2.64610263       0.00000000
Si      -0.01593162       2.67401981       2.68341771       0.00000000
Si       2.68882742      -0.00465894       2.70319849       0.00000000
Si      -0.05123205      -2.72233595      -2.67052227       0.00000000
Si       2.75001267       0.02704140      -2.65243365       0.00000000
Si       2.69521310      -2.71507061       0.02520737       0.00000000
