10
Lattice="16.290000149 0.0 0.0 0.0 16.290000149 0.0 0.0 0.0 29.1751946751" Properties=species:S:1:pos:R:3:initial_magmoms:R:1 pbc="T T T"
Si       0.69271597      -2.04948076      -0.76614061       0.00000000
Si      -0.61374205      -0.51271146       2.18256714       0.00000000
Si      -1.82061929       0.88912450      -1.14611835       0.00000000
Si       1.76065580       1.48918294      -0.32827929       0.00000000
H        1.37169946       0.26389800      -2.90485743       0.00000000
Si       0.15532515       1.53274240       3.06316204       0.00000000
Si      -2.84381049      -1.26123697      -1.53782451       0.00000000
Si       2.14641929       2.13193748       1.89320756       0.00000000
Si      -0.70196869       2.32906277      -2.69853046       0.00000000
Si       0.78053536       3.34344108      -1.22783807       0.00000000
