10
Lattice="16.290000149 0.0 0.0 0.0 16.290000149 0.0 0.0 0.0 29.1751946751" Properties=species:S:1:pos:R:3:initial_magmoms:R:1 pbc="T T T"
Si      -1.34317567      -1.32690196      -1.40825747       0.00000000
Si      -1.38407986       1.35246097       1.35597552       0.00000000
Si       1.35733168       1.34148151      -1.39734595       0.00000000
Si       1.39206294      -1.35607735       1.34920688       0.00000000
Si      -2.68148063      -2.67719636      -0.03670239       0.00000000
Si       2.66214929      -2.71645526      -0.07538870       0.00000000
Si      -2.71189406       2.67594203      -0.08096117       0.00000000
Si       0.02184489       2.71225244       2.67714504       0.00000000
Si       2.75126048       0.05304024       2.66223651       0.00000000
Si      -2.73556344      -0.03430674       2.70827497       0.00000000
