10
Lattice="16.290000149 0.0 0.0 0.0 16.290000149 0.0 0.0 0.0 29.1751946751" Properties=species:S:1:pos:R:3:initial_magmoms:R:1 pbc="T T T"
Si      -1.38269521       1.35952920      -1.32131539       0.00000000
Si      -1.38302101      -1.35444835       1.32653775       0.00000000
Si       1.34930071       1.37195196       1.35002378       0.00000000
Si       1.35052246      -1.37694484      -1.34818575       0.00000000
Si      -0.01806561      -2.70032816       2.67615308       0.00000000
Si      -0.03394836       2.73303849      -2.65841456       0.00000000
Si      -2.73813725      -0.01244556      -2.65949405       0.00000000
Si       2.72424188       0.02612916       2.68493482       0.00000000
Si      -2.69633711       0.01369989       2.71553959       0.00000000
Si       2.73043209      -0.03297096      -2.68265915       0.00000000
