10
Lattice="16.290000149 0.0 0.0 0.0 16.290000149 0.0 0.0 0.0 29.1751946751" Properties=species:S:1:pos:R:3:initial_magmoms:R:1 pbc="T T T"
Si       1.30023523       1.48401901      -1.27361453       0.00000000
Si       1.37373571      -1.35146728       1.36095281       0.00000000
Si      -1.38438937       1.37124334       1.35110618       0.00000000
Si      -1.17333613      -1.46774530      -1.44986130       0.00000000
Si       2.60708420       0.05888835      -2.57584876       0.00000000
Si      -2.52922778      -0.05942592      -2.76321186       0.00000000
Si      -2.66109533      -2.66771558      -0.01498730       0.00000000
Si       0.01819593      -2.66592368       2.76052775       0.00000000
Si       2.71718831       0.01804932       2.72411710       0.00000000
Si      -0.02205666       2.73895176       2.71437259       0.00000000
