10
Lattice="16.290000149 0.0 0.0 0.0 16.290000149 0.0 0.0 0.0 29.1751946751" Properties=species:S:1:pos:R:3:initial_magmoms:R:1 pbc="T T T"
Si       1.72519247       0.94032397       1.27539684       0.00000000
Si      -0.86581351      -1.72813607       1.38203218       0.00000000
Si       0.73023184      -0.63361585      -2.17938092       0.00000000
Si      -1.70523722       1.66850327       0.12687738       0.00000000
H       -2.91783225      -0.95008168      -0.67326984       0.00000000
Si       0.46711575       2.34126398       2.64002281       0.00000000
Si      -2.36372789      -0.49233267       2.66190129       0.00000000
Si      -0.84336589      -2.32080374      -2.62255212       0.00000000
Si       2.97595497      -1.14093532      -1.90525079       0.00000000
Si      -2.35892234       2.09217359      -2.00450480       0.00000000
