10
Lattice="16.290000149 0.0 0.0 0.0 16.290000149 0.0 0.0 0.0 29.1751946751" Properties=species:S:1:pos:R:3:initial_magmoms:R:1 pbc="T T T"
Si       1.32131449       1.32514264      -1.36590822       0.00000000
Si      -1.25807671       1.40094001       1.36462597       0.00000000
Si      -1.72519247      -0.94032397      -1.27539684       0.00000000
Si       1.45013347      -1.38456856       1.22646100       0.00000000
Si      -3.43042968       0.72817930      -1.14851947       0.00000000
Si      -2.57297294       2.66470193      -0.10804742       0.00000000
Si      -2.59100597      -2.66846004       0.10663534       0.00000000
Si       2.58406969      -0.10261071      -2.69336353       0.00000000
Si      -2.66919797      -0.00356751       2.62209436       0.00000000
Si       2.81242943       0.01052334       2.54475092       0.00000000
