10
Lattice="16.290000149 0.0 0.0 0.0 16.290000149 0.0 0.0 0.0 29.1751946751" Properties=species:S:1:pos:R:3:initial_magmoms:R:1 pbc="T T T"
Si       1.29054268      -1.41783274       1.35294130       0.00000000
Si      -1.33012738       1.04941810       1.62572937       0.00000000
Si       1.31131243       1.31479849      -1.44977377       0.00000000
Si      -1.40592475      -1.35979147      -1.32116952       0.00000000
H       -2.51129900       1.59143527       0.83493572       0.00000000
Si       2.71249842       0.01707192       2.52053259       0.00000000
Si      -2.02877291      -0.80192413       3.03874240       0.00000000
Si      -0.34656975      -2.47490714       2.78780655       0.00000000
Si       2.63291689       2.71054199      -0.16501490       0.00000000
H       -1.84759553       3.29263257      -0.29589482       0.00000000
