10
Lattice="16.290000149 0.0 0.0 0.0 16.290000149 0.0 0.0 0.0 29.1751946751" Properties=species:S:1:pos:R:3:initial_magmoms:R:1 pbc="T T T"
H        1.19733130       0.36548244       0.88937663       0.00000000
Si       0.85046833       1.48541995      -1.63293565       0.00000000
Si      -0.77084281      -2.11509362       1.17625632       0.00000000
Si       0.54302716      -2.38330847      -0.73530243       0.00000000
Si      -2.19208016       1.41475393       1.04788547       0.00000000
H        2.60060078      -1.66475657       1.34646441       0.00000000
Si      -3.41746284      -0.17132193      -0.36868694       0.00000000
H       -1.88447446      -1.57117051      -2.47058466       0.00000000
Si      -0.25464528      -1.20627451       3.26963489       0.00000000
Si       1.27431784       3.29807343      -0.14651783       0.00000000
