10
Lattice="16.290000149 0.0 0.0 0.0 16.290000149 0.0 0.0 0.0 29.1751946751" Properties=species:S:1:pos:R:3:initial_magmoms:R:1 pbc="T T T"
H        1.35666379       0.57664972       0.27340075       0.00000000
Si      -0.46302696       0.42401241      -2.21276346       0.00000000
Si      -1.35496963       1.34913781       1.33380238       0.00000000
Si      -0.45828657      -2.20776743       0.61113280       0.00000000
H        2.27822168      -1.19068498      -0.17516787       0.00000000
H        2.95257882      -0.26634150       1.44379286       0.00000000
Si       0.61867792      -2.11967111       2.71014218       0.00000000
Si       1.36270738       1.71910001      -2.84901611       0.00000000
Si      -2.76197767      -2.03538665       1.22410364       0.00000000
Si       0.18306702       2.66704769       2.51924888       0.00000000
