10
Lattice="16.290000149 0.0 0.0 0.0 16.290000149 0.0 0.0 0.0 29.1751946751" Properties=species:S:1:pos:R:3:initial_magmoms:R:1 pbc="T T T"
Si      -1.31685559       1.43478412      -1.27629807       0.00000000
Si       1.31403645       1.38384040       1.36396953       0.00000000
Si      -1.39838704      -1.33475374       1.33459011       0.00000000
Si       1.28087001      -1.34508160      -1.45695087       0.00000000
Si      -2.64180276       0.09864507      -2.61354311       0.00000000
Si       2.64606161      -2.69343749      -0.08548332       0.00000000
Si      -0.02984294      -2.69169446       2.67527783       0.00000000
Si       2.65968005       0.02290374       2.71939072       0.00000000
Si       2.69330261       0.04538394      -2.71307721       0.00000000
Si       2.63855192       2.76763845       0.00221731       0.00000000
