10
Lattice="16.290000149 0.0 0.0 0.0 16.290000149 0.0 0.0 0.0 29.1751946751" Properties=species:S:1:pos:R:3:initial_magmoms:R:1 pbc="T T T"
Si      -1.45769437      -1.29772657       1.30264327       0.00000000
Si       1.36980982      -1.38728899      -1.31066645       0.00000000
Si      -1.36365220       1.32680422      -1.37972413       0.00000000
Si       1.38217393       1.35009892       1.34130040       0.00000000
Si      -0.06287940       2.71580366       2.57071393       0.00000000
Si      -0.21699909      -2.68744277       2.67437340       0.00000000
Si       2.72298755      -0.03777651      -2.68274668       0.00000000
Si       0.00894321      -2.73224028      -2.67807864       0.00000000
Si       2.72477946       2.69037497      -0.02374861       0.00000000
Si      -0.00957852       2.67867875      -2.74057191       0.00000000
