10
Lattice="16.290000149 0.0 0.0 0.0 16.290000149 0.0 0.0 0.0 29.1751946751" Properties=species:S:1:pos:R:3:initial_magmoms:R:1 pbc="T T T"
Si      -1.33832125      -1.28990737      -1.43063485       0.00000000
Si       1.35148357       1.38676771      -1.35229945       0.00000000
Si      -1.13246452       1.10501587       1.75445033       0.00000000
Si       1.34164441      -1.41463990       1.37228446       0.00000000
Si       0.72863542       1.94463506       3.00761247       0.00000000
Si       2.41083857       0.27165204       2.75667662       0.00000000
Si      -2.79311601      -0.41355423       2.48733122       0.00000000
Si       0.05408280      -2.64288962      -2.74497737       0.00000000
Si       2.73556344       0.03430674      -2.70827497       0.00000000
Si      -0.05250267      -3.22494762       2.13652868       0.00000000
