10
Lattice="16.290000149 0.0 0.0 0.0 16.290000149 0.0 0.0 0.0 29.1751946751" Properties=species:S:1:pos:R:3:initial_magmoms:R:1 pbc="T T T"
Si       0.90088588      -0.74199322      -0.97824428       0.00000000
Si      -1.07867494       1.71395237       0.78641300       0.00000000
Si      -1.91291843      -0.28347858       1.87899632       0.00000000
Si      -1.32642955       2.22782042      -1.51311312       0.00000000
Si       2.30384764      -1.91212022       0.48267442       0.00000000
Si      -0.69211324      -1.87056443      -2.32006983       0.00000000
Si       2.05245857       0.89795368      -2.15876018       0.00000000
Si       0.86301163       2.56587050       1.84951479       0.00000000
Si      -0.48583296      -1.65074717       3.21360977       0.00000000
Si      -3.22149414      -1.73019350       0.50907797       0.00000000
