10
Lattice="16.290000149 0.0 0.0 0.0 16.290000149 0.0 0.0 0.0 29.1751946751" Properties=species:S:1:pos:R:3:initial_magmoms:R:1 pbc="T T T"
Si      -1.34564361       1.36093666      -1.35542119       0.00000000
Si       1.35625654       1.36307554       1.35028636       0.00000000
Si      -1.37540055      -1.34846992       1.35063646       0.00000000
Si       1.31603653      -1.37000530      -1.39107328       0.00000000
Si       0.01394424      -2.69785208       2.68032513       0.00000000
Si      -2.65968005      -0.02290374      -2.71939072       0.00000000
Si       2.70550838      -0.01097946      -2.69342480       0.00000000
Si      -0.02800251       2.71681364       2.68508069       0.00000000
Si      -2.68952299      -2.71459820      -0.04411289       0.00000000
Si       2.69646743      -2.71736750      -0.05654153       0.00000000
