10
Lattice="16.28999089631971 0.0 0.0 0.0 16.28999089631971 0.0 0.0 0.0 34.31420841018396" Properties=species:S:1:pos:R:3:initial_magmoms:R:1 pbc="T T T"
Si       1.62637731       1.11710141      -1.25895782       0.00000000
Si      -1.30510593       1.36612664       1.42187522       0.00000000
Si      -1.53746649      -1.37053882      -1.28159664       0.00000000
Si       1.41340185      -1.36738736       1.43480482       0.00000000
Si       0.52354431      -2.03449950      -2.66222958       0.00000000
Si       2.57862555      -0.73971098      -2.55129168       0.00000000
Si      -2.65158846      -0.00882266       2.80380181       0.00000000
Si       0.92694987       1.76415650      -3.33115113       0.00000000
Si       0.06095718       2.70553931       2.80912052       0.00000000
Si       2.79086796       2.72961593       0.00231621       0.00000000
