10
Lattice="16.28999089631971 0.0 0.0 0.0 16.28999089631971 0.0 0.0 0.0 34.31420841018396" Properties=species:S:1:pos:R:3:initial_magmoms:R:1 pbc="T T T"
Si       1.34065071       1.34241166      -1.37188282       0.00000000
Si      -1.37435472      -1.37351320      -1.36532880       0.00000000
Si      -1.21285566       1.41442975       1.47475687       0.00000000
Si       1.30810329      -1.34989919       1.47770790       0.00000000
Si      -2.22480675      -0.46122854       2.52861543       0.00000000
Si      -0.64267308      -2.36894623       2.40824112       0.00000000
Si       2.69498502       2.69291782       0.01382863       0.00000000
Si      -2.71759554       2.68744438       0.00693147       0.00000000
Si       2.69764029      -0.01459584      -2.72674578       0.00000000
Si      -0.01686015       2.69756047      -2.72688304       0.00000000
