10
Lattice="16.28999089631971 0.0 0.0 0.0 16.28999089631971 0.0 0.0 0.0 34.31420841018396" Properties=species:S:1:pos:R:3:initial_magmoms:R:1 pbc="T T T"
Si      -0.76173669       0.49646381       2.15033539       0.00000000
Si      -1.86509097      -0.85772063      -1.13947256       0.00000000
Si       1.01195109       1.87565829      -1.05385856       0.00000000
Si       1.58213367      -1.90771768      -0.12037431       0.00000000
Si       2.22480675       0.46122854      -2.52861543       0.00000000
Si      -0.53155899      -2.26613026      -2.54354212       0.00000000
Si       3.53291004      -0.88867065      -1.05090753       0.00000000
Si      -3.11312814      -2.22877729       0.33346566       0.00000000
Si      -3.10938307       1.19607207       2.03737295       0.00000000
Si       2.12281506       3.28031241       0.53430684       0.00000000
