10
Lattice="16.28999089631971 0.0 0.0 0.0 16.28999089631971 0.0 0.0 0.0 34.31420841018396" Properties=species:S:1:pos:R:3:initial_magmoms:R:1 pbc="T T T"
Si      -1.05039549       1.53893259       1.42915326       0.00000000
Si       1.28979822       1.43425305      -1.40980004       0.00000000
Si      -1.47888995      -1.33133283      -1.38032412       0.00000000
Si       0.17836736      -1.70919567       1.78210941       0.00000000
Si      -2.36612480      -0.33278841       2.05696637       0.00000000
Si      -2.52304637       2.71581993      -0.06560880       0.00000000
Si       0.05813575      -2.45594393      -2.79159967       0.00000000
Si       0.92185599      -0.33361920       3.58885643       0.00000000
Si      -2.64768116       0.23581404      -2.78264366       0.00000000
Si       2.27350245       3.11906259      -0.05051054       0.00000000
