10
Lattice="16.28999089631971 0.0 0.0 0.0 16.28999089631971 0.0 0.0 0.0 34.31420841018396" Properties=species:S:1:pos:R:3:initial_magmoms:R:1 pbc="T T T"
Si      -0.36476568       1.07950572      -2.05597126       0.00000000
Si      -0.36170316      -2.30921243      -0.30296032       0.00000000
Si      -1.62696375       1.23761646       1.18161043       0.00000000
Si       2.23744779      -0.07775217       0.75731500       0.00000000
Si       1.65666042      -3.14959724      -1.08601099       0.00000000
Si      -0.70491717       3.48395859       1.22848366       0.00000000
Si       2.12698530      -0.69974835       3.04885344       0.00000000
Si      -3.48364908       1.51668045      -0.20375788       0.00000000
Si       0.28085589      -0.26626005      -3.84974751       0.00000000
Si      -1.77637563      -2.68072217      -2.15616880       0.00000000
