10
Lattice="16.28999089631971 0.0 0.0 0.0 16.28999089631971 0.0 0.0 0.0 34.31420841018396" Properties=species:S:1:pos:R:3:initial_magmoms:R:1 pbc="T T T"
Si      -1.35651717       1.35684297      -1.36436800       0.00000000
Si       1.35941679      -1.35840681      -1.36488272       0.00000000
Si      -1.34405532      -1.37137365       1.38056432       0.00000000
Si       1.37614662       1.35005004       1.37912312       0.00000000
Si      -2.70932022      -2.71726974      -0.00374025       0.00000000
Si      -2.71243161       2.71489140      -0.00363731       0.00000000
Si       2.71489140      -2.71477737      -0.00291671       0.00000000
Si       2.72117934       2.70982521      -0.00802953       0.00000000
Si      -2.71314837      -0.00052128      -2.72190747       0.00000000
Si       0.00159642       2.71485882      -2.72156433       0.00000000
