10
Lattice="16.28999089631971 0.0 0.0 0.0 16.28999089631971 0.0 0.0 0.0 34.31420841018396" Properties=species:S:1:pos:R:3:initial_magmoms:R:1 pbc="T T T"
Si       1.13479398       1.47637899      -1.46772246       0.00000000
Si       1.53044550      -1.45894869       1.10797209       0.00000000
Si      -0.87164532       1.80252108       1.33904410       0.00000000
Si      -1.63955592      -1.33651305      -1.18469871       0.00000000
Si       1.68047640       1.96690347       1.65977919       0.00000000
Si      -0.26106354      -2.41408026       2.44118278       0.00000000
Si      -0.12297321      -2.46241269      -2.69376981       0.00000000
Si       3.18480903       0.14397102       1.88289030       0.00000000
Si       2.63516814       0.23011254      -2.70378956       0.00000000
Si       1.97617248       3.32786781      -0.28971502       0.00000000
