10
Lattice="16.28999089631971 0.0 0.0 0.0 16.28999089631971 0.0 0.0 0.0 34.31420841018396" Properties=species:S:1:pos:R:3:initial_magmoms:R:1 pbc="T T T"
Si       0.89891478       1.77875397       1.22405713       0.00000000
Si      -0.59403114       0.83781099      -2.15335504       0.00000000
Si      -1.84309947      -0.63773721       1.42428064       0.00000000
Si       1.63442457      -1.79333352      -0.00082354       0.00000000
Si       2.16723789       0.07934859      -1.41172164       0.00000000
Si      -1.10464119       3.09720141       1.52574782       0.00000000
Si       0.53353008      -3.35670111      -1.31474963       0.00000000
Si       1.32323670      -2.64293847       2.15654626       0.00000000
Si      -1.02516228      -2.69377956       2.27060675       0.00000000
Si      -2.24839467      -0.76510872      -2.92827324       0.00000000
