10
Lattice="16.28999089631971 0.0 0.0 0.0 16.28999089631971 0.0 0.0 0.0 34.31420841018396" Properties=species:S:1:pos:R:3:initial_magmoms:R:1 pbc="T T T"
Si      -0.04960305      -1.91124054       1.33341657       0.00000000
Si       0.93322152       1.70256564       1.32864689       0.00000000
Si      -2.06861823       1.10082933      -0.26919512       0.00000000
Si       0.62376039      -0.96674634      -2.06190762       0.00000000
Si       0.01804932       0.79918740       3.35579420       0.00000000
Si      -1.47349566      -1.65926682      -2.86022813       0.00000000
Si      -2.78841306       0.18847530      -2.30818083       0.00000000
Si       1.95836751      -1.93696245       2.53269882       0.00000000
Si      -1.15766514      -1.31701392       3.30964156       0.00000000
Si       1.60583562       0.71115624      -3.36783849       0.00000000
