10
Lattice="16.28999089631971 0.0 0.0 0.0 16.28999089631971 0.0 0.0 0.0 34.31420841018396" Properties=species:S:1:pos:R:3:initial_magmoms:R:1 pbc="T T T"
Si      -1.35619137      -1.35751086      -1.35702476       0.00000000
Si       1.35843939       1.35663961      -1.35671593       0.00000000
Si      -1.35733167       1.35697064       1.35764241       0.00000000
Si       1.35754344      -1.35738054       1.35767673       0.00000000
Si       0.00065160      -2.71648782      -2.71006907       0.00000000
Si      -0.00146610       2.71296985       2.71525051       0.00000000
Si      -0.00006516      -2.71393029       2.71432403       0.00000000
Si      -2.71426423      -2.71529865      -0.00030883       0.00000000
Si      -2.71508036       2.71480410      -0.00017157       0.00000000
Si       2.71547784       2.71468519       0.00003431       0.00000000
