10
Lattice="16.28999089631971 0.0 0.0 0.0 16.28999089631971 0.0 0.0 0.0 34.31420841018396" Properties=species:S:1:pos:R:3:initial_magmoms:R:1 pbc="T T T"
Si      -1.35803214      -1.35677781      -1.35699044       0.00000000
Si       1.35695700       1.35844675      -1.35729927       0.00000000
Si       1.35744570      -1.35627282       1.35949538       0.00000000
Si      -1.35881406       1.35726651       1.36134835       0.00000000
Si      -2.71564074      -2.71332756      -0.00034314       0.00000000
Si      -0.00034209      -2.71451673      -2.71452992       0.00000000
Si       2.71433754       0.00091224      -2.71487306       0.00000000
Si       2.71318095       2.71618387      -0.00006863       0.00000000
Si       2.71489140      -2.71474479       0.00089217       0.00000000
Si      -0.00009774       2.71528792      -2.71463286       0.00000000
