10
Lattice="16.28999089631971 0.0 0.0 0.0 16.28999089631971 0.0 0.0 0.0 34.31420841018396" Properties=species:S:1:pos:R:3:initial_magmoms:R:1 pbc="T T T"
Si      -0.36652500      -1.23681825      -1.85077218       0.00000000
Si       0.62719758      -0.80036028       2.05144178       0.00000000
Si      -2.13278454       0.94115475       0.20605694       0.00000000
Si       1.19892771       1.14401789       3.24760144       0.00000000
Si       1.13780763      -3.05975070      -1.62766107       0.00000000
Si      -1.46732175      -1.42763931       3.16058056       0.00000000
Si      -3.69773226      -0.85763592      -0.03345637       0.00000000
Si      -0.07082892       0.12414609      -3.80026639       0.00000000
Si       2.63075355      -2.11880772       1.74975109       0.00000000
Si      -2.41469928       2.52832759      -1.52955669       0.00000000
