10
Lattice="16.28999089631971 0.0 0.0 0.0 16.28999089631971 0.0 0.0 0.0 34.31420841018396" Properties=species:S:1:pos:R:3:initial_magmoms:R:1 pbc="T T T"
Si       0.95009796      -1.94931027       0.82035024       0.00000000
Si      -1.68399504      -0.82086939      -1.38351534       0.00000000
Si      -0.93017529       1.89283284       1.11239863       0.00000000
Si       2.09451933       0.62727903      -1.10913878       0.00000000
Si       2.74993119      -0.93571389       1.90605240       0.00000000
Si      -0.97168221       3.30141026      -0.82038455       0.00000000
Si       1.35606105      -3.10765959      -1.21060595       0.00000000
Si       2.50286076       1.42395777       2.18255645       0.00000000
Si       2.66624946       2.57165720       0.08702088       0.00000000
Si      -3.58544366      -1.04058891       0.02566704       0.00000000
