10
Lattice="16.28999089631971 0.0 0.0 0.0 16.28999089631971 0.0 0.0 0.0 34.31420841018396" Properties=species:S:1:pos:R:3:initial_magmoms:R:1 pbc="T T T"
Si       0.73946826      -0.87291594       1.99122031       0.00000000
Si      -1.79983323      -1.01359638      -1.08570216       0.00000000
Si       1.93930821      -0.50230215      -1.19773811       0.00000000
Si      -0.24707043       2.35967166       0.27650405       0.00000000
Si      -0.65541186       1.56299292      -3.01519118       0.00000000
Si      -2.74993119       0.93571389      -1.90605240       0.00000000
Si       1.34814411       0.24454548      -3.31688187       0.00000000
Si       3.53038509       0.72278730      -0.01183841       0.00000000
Si       0.58860657      -3.25871676       1.68403935       0.00000000
Si       3.04160364      -0.19554516       2.13997249       0.00000000
