10
Lattice="16.28999089631971 0.0 0.0 0.0 16.28999089631971 0.0 0.0 0.0 34.31420841018396" Properties=species:S:1:pos:R:3:initial_magmoms:R:1 pbc="T T T"
Si       2.01836358      -0.84038481      -0.78305067       0.00000000
Si       0.36170316       2.30921243       0.30296032       0.00000000
Si      -1.41467247      -0.37150974      -1.85320849       0.00000000
Si      -0.82849311      -0.97101432       1.99152914       0.00000000
Si      -3.48361650      -0.27596889      -0.73257444       0.00000000
Si      -3.00934944      -1.49174046       1.24447409       0.00000000
Si       2.59915095       2.23146026       1.06027532       0.00000000
Si       2.18175228       0.30731462      -2.87858624       0.00000000
Si       3.68443962       0.19015317       0.48805126       0.00000000
Si      -0.48449718      -2.26434258      -2.96560712       0.00000000
