10
Lattice="16.28999089631971 0.0 0.0 0.0 16.28999089631971 0.0 0.0 0.0 34.31420841018396" Properties=species:S:1:pos:R:3:initial_magmoms:R:1 pbc="T T T"
Si       1.35622395       1.35773712       1.35723064       0.00000000
Si      -1.35705474       1.35684117      -1.35733359       0.00000000
Si       1.35738054      -1.35753451      -1.35757379       0.00000000
Si      -1.35695700      -1.35844675       1.35729927       0.00000000
Si      -0.00076563       2.71474462       2.71209361       0.00000000
Si      -2.71409319      -0.00120441      -2.71408383       0.00000000
Si      -0.00076563       2.71494010      -2.71422109       0.00000000
Si       2.71484253       2.71479349      -0.00027451       0.00000000
Si      -2.71489140       2.71474462       0.00041177       0.00000000
Si       2.71507059      -0.00157120      -2.71459854       0.00000000
