10
Lattice="16.28999089631971 0.0 0.0 0.0 16.28999089631971 0.0 0.0 0.0 34.31420841018396" Properties=species:S:1:pos:R:3:initial_magmoms:R:1 pbc="T T T"
Si       1.46049624      -1.79947974       0.44457513       0.00000000
Si       0.00847080       1.33390665       1.95546489       0.00000000
Si      -1.96545040      -1.33608788       0.07954038       0.00000000
Si       1.03677705       1.09755504      -1.90052781       0.00000000
Si       3.09552354      -0.47412045       1.47763927       0.00000000
Si       2.36530800       1.75580136       1.88405698       0.00000000
Si      -0.81990828       1.37661903      -3.28589612       0.00000000
Si      -2.60668182      -1.41558308       2.39482426       0.00000000
Si      -0.91857681      -0.09873369       3.82397752       0.00000000
Si      -3.44874680      -0.83471915      -1.72765273       0.00000000
