10
Lattice="16.28999089631971 0.0 0.0 0.0 16.28999089631971 0.0 0.0 0.0 34.31420841018396" Properties=species:S:1:pos:R:3:initial_magmoms:R:1 pbc="T T T"
Si      -1.35698958       1.35700750       1.35486296       0.00000000
Si      -1.35622395      -1.35773712      -1.35723064       0.00000000
Si       1.35861858       1.35705637      -1.35750516       0.00000000
Si       1.36083402      -1.35771190       1.36282386       0.00000000
Si      -2.69764029       0.01459584       2.72674578       0.00000000
Si      -2.71450044       2.71215631      -0.00013726       0.00000000
Si      -2.71327869      -0.00089595      -2.71456423       0.00000000
Si       2.71534752       2.71272646       0.00054903       0.00000000
Si       0.00099369       2.71464868      -2.71463286       0.00000000
Si      -2.71318095      -2.71618387       0.00006863       0.00000000
