10
Lattice="16.28999089631971 0.0 0.0 0.0 16.28999089631971 0.0 0.0 0.0 34.31420841018396" Properties=species:S:1:pos:R:3:initial_magmoms:R:1 pbc="T T T"
Si       1.10089449       1.56336759       1.31392609       0.00000000
Si       1.57089357      -1.71647730      -0.15592385       0.00000000
Si      -1.66575024      -0.69059826       1.56242972       0.00000000
Si      -1.39048182       1.13759586      -2.78967807       0.00000000
Si       1.73719818      -1.72535535      -2.52576735       0.00000000
Si       0.78970662       0.71376264       3.47129589       0.00000000
Si      -0.53353008       3.35670111       1.31474963       0.00000000
Si       1.63370781       3.43604970      -0.09697201       0.00000000
Si      -3.74476149      -0.56334078       0.44697713       0.00000000
Si      -1.55869236       0.66292155       3.58535638       0.00000000
