10
Lattice="16.28999089631971 0.0 0.0 0.0 16.28999089631971 0.0 0.0 0.0 34.31420841018396" Properties=species:S:1:pos:R:3:initial_magmoms:R:1 pbc="T T T"
Si      -2.20532391       0.62892432      -0.48890911       0.00000000
Si       0.74073888      -1.57224564       1.58970954       0.00000000
Si       1.26193743       1.97570007       0.31256830       0.00000000
Si       0.91689894      -1.73947878      -1.85097806       0.00000000
Si       2.63252916       1.54792467      -1.57100828       0.00000000
Si       3.03613020      -1.27980756       1.09047184       0.00000000
Si       3.21108480      -0.88317864      -1.22748855       0.00000000
Si      -2.94241383      -1.26618912      -1.63596511       0.00000000
Si      -3.22302537       0.80479116       1.64502407       0.00000000
Si       0.95565285       1.66939920      -3.34700976       0.00000000
