10
Lattice="16.28999089631971 0.0 0.0 0.0 16.28999089631971 0.0 0.0 0.0 34.31420841018396" Properties=species:S:1:pos:R:3:initial_magmoms:R:1 pbc="T T T"
Si       2.02851225      -1.25390483       0.49532588       0.00000000
Si       0.92704761       1.43264034      -1.86851263       0.00000000
Si      -1.68810501      -1.31684939      -1.42915326       0.00000000
Si       0.18104706       1.12788702       2.31408288       0.00000000
Si      -1.99984087      -3.09157226       0.20451280       0.00000000
Si       2.09463336      -2.86921376      -1.38934876       0.00000000
Si      -2.36787272      -1.82376976       2.37698086       0.00000000
Si      -0.65575395      -0.70305685       3.71850043       0.00000000
Si       0.91857681       0.09873369      -3.82397752       0.00000000
Si      -0.25712136       3.48925284      -1.98205841       0.00000000
