10
Lattice="16.28999089631971 0.0 0.0 0.0 16.28999089631971 0.0 0.0 0.0 34.31420841018396" Properties=species:S:1:pos:R:3:initial_magmoms:R:1 pbc="T T T"
Si       2.31795297       0.40436504      -0.61913161       0.00000000
Si      -2.02851225       1.25390483      -0.49532588       0.00000000
Si       1.13156856      -0.81584803       2.02639240       0.00000000
Si       0.06612111      -1.61530893      -1.88467464       0.00000000
Si      -1.84746519       2.38179185       1.81875700       0.00000000
Si       1.98558810       0.87851807      -2.84166413       0.00000000
Si       3.19257936      -1.47980871       0.64575945       0.00000000
Si      -1.10146464       2.68654517      -2.36383851       0.00000000
Si       0.35056080      -0.44684122      -3.87472826       0.00000000
Si      -0.14696838      -2.42407485       3.29519669       0.00000000
