10
Lattice="16.28999089631971 0.0 0.0 0.0 16.28999089631971 0.0 0.0 0.0 34.31420841018396" Properties=species:S:1:pos:R:3:initial_magmoms:R:1 pbc="T T T"
Si       1.55621628       1.28633985      -1.28708348       0.00000000
Si      -1.30549689       1.35782037       1.50609949       0.00000000
Si      -1.18123677      -1.26954486      -1.69521690       0.00000000
Si       1.39393530      -1.33247313       1.47905301       0.00000000
Si      -0.24371469       2.21076477      -2.73380563       0.00000000
Si      -2.13377823       0.64985697      -2.78486520       0.00000000
Si      -2.53539189      -2.58471801      -0.02941759       0.00000000
Si      -2.67586056       2.64671775       0.17386333       0.00000000
Si       2.64440457      -2.85671214       0.10670009       0.00000000
Si       2.78741448       2.73184929       0.07697368       0.00000000
