10
Lattice="16.28999089631971 0.0 0.0 0.0 16.28999089631971 0.0 0.0 0.0 34.31420841018396" Properties=species:S:1:pos:R:3:initial_magmoms:R:1 pbc="T T T"
Si      -1.10089449      -1.56336759      -1.31392609       0.00000000
Si      -0.31118787      -0.84960495       2.15736980       0.00000000
Si       2.37576618       0.35160336      -0.11406049       0.00000000
Si       0.53281332       1.87268211      -1.41089810       0.00000000
Si      -1.63442457       1.79333352       0.00082354       0.00000000
Si      -2.76664473      -2.25396585       0.24850364       0.00000000
Si      -2.65958685      -0.90044604       2.27143030       0.00000000
Si       0.46999908      -3.27984489      -1.46984994       0.00000000
Si       2.82605436       0.58166703       2.25990071       0.00000000
Si       0.83671956       0.68183424       3.51576713       0.00000000
