10
Lattice="16.28999089631971 0.0 0.0 0.0 16.28999089631971 0.0 0.0 0.0 34.31420841018396" Properties=species:S:1:pos:R:3:initial_magmoms:R:1 pbc="T T T"
Si      -0.91525365       1.02490164       1.82606594       0.00000000
Si      -0.73946826       0.87291594      -1.99122031       0.00000000
Si       2.30213538       0.67737078       0.14875218       0.00000000
Si      -0.15086169      -2.38580082      -0.30718097       0.00000000
Si       2.83594239      -1.42262199       1.06696659       0.00000000
Si       1.19983995       0.37061379      -3.18895843       0.00000000
Si       2.10877308      -2.64404619      -0.80034504       0.00000000
Si      -0.14247234      -0.33347259       3.57880237       0.00000000
Si      -3.21191559       0.85072896       1.61956291       0.00000000
Si       2.79091683       1.59570324      -2.00305872       0.00000000
