10
Lattice="16.28999089631971 0.0 0.0 0.0 16.28999089631971 0.0 0.0 0.0 34.31420841018396" Properties=species:S:1:pos:R:3:initial_magmoms:R:1 pbc="T T T"
Si       1.36029645       1.33768497       1.37126516       0.00000000
Si       1.35640314      -1.35765747      -1.36186306       0.00000000
Si      -1.36083402       1.35771190      -1.36282386       0.00000000
Si      -1.36661697      -1.36226754       1.38454477       0.00000000
Si       2.59066386      -0.19117944       2.81126172       0.00000000
Si       2.71324611      -2.71513575      -0.00240200       0.00000000
Si      -2.71656927      -2.71474479      -0.00325985       0.00000000
Si       2.71487511       2.71654388      -0.00367162       0.00000000
Si      -2.71782360       2.71471940      -0.00796090       0.00000000
Si       2.71331127      -0.00046360      -2.72019176       0.00000000
