10
Lattice="16.28999089631971 0.0 0.0 0.0 16.28999089631971 0.0 0.0 0.0 34.31420841018396" Properties=species:S:1:pos:R:3:initial_magmoms:R:1 pbc="T T T"
Si       0.83829969       1.46935800       1.62570516       0.00000000
Si       0.53380701      -2.09999277       0.91821442       0.00000000
Si       0.48878145       0.91833246      -2.15181090       0.00000000
Si      -2.30213538      -0.67737078      -0.14875218       0.00000000
Si      -0.19336230      -3.32141697      -0.94909722       0.00000000
Si      -1.10229543      -0.30675699      -3.33771060       0.00000000
Si      -3.21738903       0.34753086       1.67731376       0.00000000
Si      -3.04160364       0.19554516      -2.13997249       0.00000000
Si      -0.44139384       3.40465887       1.45228105       0.00000000
Si       2.78313021      -2.04079491       1.48052166       0.00000000
