10
Lattice="16.28999089631971 0.0 0.0 0.0 16.28999089631971 0.0 0.0 0.0 34.31420841018396" Properties=species:S:1:pos:R:3:initial_magmoms:R:1 pbc="T T T"
Si      -2.11985028       0.99097757       0.15894350       0.00000000
Si      -0.41143653      -2.07583470      -1.06449597       0.00000000
Si       1.19687517       1.36805442      -1.55223840       0.00000000
Si       0.10070478      -0.93341700       2.29521005       0.00000000
Si       2.48854185      -1.31716053       1.47002151       0.00000000
Si      -2.43221103      -2.49518817      -0.01660809       0.00000000
Si      -0.43461720      -1.26314289      -3.22951784       0.00000000
Si       1.79621685      -0.40503456      -3.04820146       0.00000000
Si      -3.68761617      -0.60204582      -0.55976799       0.00000000
Si       2.70453096       2.65008068      -0.27633247       0.00000000
