10
Lattice="16.28999089631971 0.0 0.0 0.0 16.28999089631971 0.0 0.0 0.0 34.31420841018396" Properties=species:S:1:pos:R:3:initial_magmoms:R:1 pbc="T T T"
Si      -0.27474714       0.92163933      -2.14272679       0.00000000
Si      -1.89493425      -0.66759515       1.27535257       0.00000000
Si       0.89199153       1.95856299       1.21339480       0.00000000
Si       1.85090238      -1.70519485      -0.18777662       0.00000000
Si      -0.52571088      -1.96002075       2.68843992       0.00000000
Si       2.20852654       0.74556072       2.68854972       0.00000000
Si       0.84664017       3.03047757      -1.71047047       0.00000000
Si       0.86118714      -3.30739847       1.26779658       0.00000000
Si       3.56302115      -0.58448194       1.15374295       0.00000000
Si      -3.09570273      -2.26410542      -0.00883420       0.00000000
