10
Lattice="16.28999089631971 0.0 0.0 0.0 16.28999089631971 0.0 0.0 0.0 34.31420841018396" Properties=species:S:1:pos:R:3:initial_magmoms:R:1 pbc="T T T"
Si       1.37441338       1.33442793      -1.35857919       0.00000000
Si      -1.35783666       1.35511623       1.36045618       0.00000000
Si       1.35506527      -1.36068143       1.36079932       0.00000000
Si      -1.35982404      -1.37115354      -1.35868900       0.00000000
Si       0.05787837       2.54743020      -2.83373411       0.00000000
Si      -2.71267596       2.71057455      -0.00003431       0.00000000
Si       2.71400752       2.71002069       0.00209317       0.00000000
Si       2.71266360      -2.71333475      -0.00106374       0.00000000
Si      -0.00016290       2.71228500       2.71744663       0.00000000
Si      -2.71293660      -2.71765160       0.00253925       0.00000000
