10
Lattice="16.28999089631971 0.0 0.0 0.0 16.28999089631971 0.0 0.0 0.0 34.31420841018396" Properties=species:S:1:pos:R:3:initial_magmoms:R:1 pbc="T T T"
Si       1.53702570      -1.12461110      -1.41127555       0.00000000
Si      -1.16879121       1.56714687      -1.40231954       0.00000000
Si       1.47888995       1.33133283       1.38032412       0.00000000
Si      -1.32756984      -1.31981091       1.61592561       0.00000000
Si       1.65725730      -0.37786284       3.16243353       0.00000000
Si      -0.88723485       0.99854442       3.43729049       0.00000000
Si       0.18901526      -2.48804405      -2.77440824       0.00000000
Si      -2.52519435       0.23152977      -2.77114839       0.00000000
Si      -2.64940560      -2.67619355       0.04378495       0.00000000
Si       2.90154941      -2.43165554      -0.01441198       0.00000000
