10
Lattice="16.28999089631971 0.0 0.0 0.0 16.28999089631971 0.0 0.0 0.0 34.31420841018396" Properties=species:S:1:pos:R:3:initial_magmoms:R:1 pbc="T T T"
Si      -0.44862660       0.09754452       2.24154260       0.00000000
Si      -2.04056685      -0.98174943      -0.54497856       0.00000000
Si       1.31572931       1.87172100      -0.62781311       0.00000000
Si       2.54449215      -1.37640726      -0.27485696       0.00000000
Si      -0.44033499      -2.31835533      -1.82136489       0.00000000
Si       2.36612480       0.33278841      -2.05696637       0.00000000
Si       3.28798079      -0.00083079       1.53189006       0.00000000
Si       0.88723485      -0.99854442      -3.43729049       0.00000000
Si      -0.15692157       3.04860834      -2.12257518       0.00000000
Si       1.22596375      -3.49351172      -0.44145254       0.00000000
