10
Lattice="16.28999089631971 0.0 0.0 0.0 16.28999089631971 0.0 0.0 0.0 34.31420841018396" Properties=species:S:1:pos:R:3:initial_magmoms:R:1 pbc="T T T"
Si       0.44862660      -0.09754452      -2.24154260       0.00000000
Si       1.03623948       1.93842855       0.91063097       0.00000000
Si      -2.44283211       0.06478533       0.30066126       0.00000000
Si       1.44415737      -1.54487844       1.26990093       0.00000000
Si      -2.36920131      -2.33277035      -0.35580423       0.00000000
Si      -1.59194025      -1.07929395      -2.78652117       0.00000000
Si       0.83398284       1.30264614       3.20783125       0.00000000
Si       3.02389382       2.10528702      -0.38411346       0.00000000
Si      -2.61778671      -0.33184359       2.61862165       0.00000000
Si       0.85362858      -1.08709686       3.45976631       0.00000000
