10
Lattice="16.28999089631971 0.0 0.0 0.0 16.28999089631971 0.0 0.0 0.0 34.31420841018396" Properties=species:S:1:pos:R:3:initial_magmoms:R:1 pbc="T T T"
Si       1.07398341       0.61823808      -1.96033751       0.00000000
Si       1.78968456      -1.15170693       0.97002890       0.00000000
Si      -1.73506419      -1.24856727      -1.00849515       0.00000000
Si      -0.82800441       1.88636897       1.24546920       0.00000000
Si      -0.25374933       2.39800529      -2.60108708       0.00000000
Si      -2.28766986      -1.12627824       2.56529734       0.00000000
Si      -3.46887405      -0.94518231       0.52064978       0.00000000
Si       3.38589279       0.47921922       1.69004434       0.00000000
Si       0.81723672       3.61177319       1.05279482       0.00000000
Si       1.22285772      -2.20347078       2.92003782       0.00000000
