10
Lattice="16.28999089631971 0.0 0.0 0.0 16.28999089631971 0.0 0.0 0.0 34.31420841018396" Properties=species:S:1:pos:R:3:initial_magmoms:R:1 pbc="T T T"
Si       1.36753965       0.26160600      -1.88700800       0.00000000
Si       1.48329639      -0.50136873       1.80719311       0.00000000
Si      -1.59620823      -1.63092615      -0.72001544       0.00000000
Si      -0.66632616       2.25150932       0.48448258       0.00000000
Si      -0.16822683       1.16353280      -3.44998676       0.00000000
Si      -2.16303507      -2.68269000       1.22999349       0.00000000
Si       1.84722803      -2.80069476       1.72130460       0.00000000
Si       2.62883852       2.21133818      -1.55824339       0.00000000
Si       2.26716794      -1.89052359      -2.39002027       0.00000000
Si      -3.38589279      -0.47921922      -1.69004434       0.00000000
