10
Lattice="16.28999089631971 0.0 0.0 0.0 16.28999089631971 0.0 0.0 0.0 34.31420841018396" Properties=species:S:1:pos:R:3:initial_magmoms:R:1 pbc="T T T"
Si      -1.35640314      -1.33561710      -1.36882885       0.00000000
Si      -1.39821957       1.29512016       1.37064751       0.00000000
Si       1.35959598       1.37982816      -1.37030436       0.00000000
Si       1.16879121      -1.56714687       1.40231954       0.00000000
Si       0.12463479       2.48000589       2.71703485       0.00000000
Si       2.70581691      -2.69175797      -0.00895601       0.00000000
Si       0.00001629      -2.69515932      -2.72804972       0.00000000
Si      -2.71098180      -2.71447600       0.00610793       0.00000000
Si       2.71554530       2.71674846      -0.01351981       0.00000000
Si       2.71331683       0.02029734      -2.72750069       0.00000000
