10
Lattice="16.28999089631971 0.0 0.0 0.0 16.28999089631971 0.0 0.0 0.0 34.31420841018396" Properties=species:S:1:pos:R:3:initial_magmoms:R:1 pbc="T T T"
Si      -1.45834596       1.78004088      -0.27770504       0.00000000
Si      -1.18271916      -1.56354678      -1.28712668       0.00000000
Si       2.26905039       0.07094295      -0.69791707       0.00000000
Si      -0.11173311      -0.34977888       2.36675522       0.00000000
Si       2.28869613      -2.31880005      -0.44598202       0.00000000
Si       0.14501358      -3.34331399      -0.64637711       0.00000000
Si       0.15394050       3.32034183      -1.03876030       0.00000000
Si       3.14930239       1.63344717       0.85644881       0.00000000
Si      -1.75697424      -2.07518310       2.55942961       0.00000000
Si      -2.53441449       2.20845159       1.77222691       0.00000000
