10
Lattice="16.28999089631971 0.0 0.0 0.0 16.28999089631971 0.0 0.0 0.0 34.31420841018396" Properties=species:S:1:pos:R:3:initial_magmoms:R:1 pbc="T T T"
Si       1.16072766      -1.92389787       0.70755937       0.00000000
Si       1.39185018       0.75877191      -1.76992786       0.00000000
Si      -2.04864669      -0.91649169      -0.83551713       0.00000000
Si      -0.62374410       1.17641493       2.07635391       0.00000000
Si      -0.40195575       1.04523156      -3.33324975       0.00000000
Si       0.17692569      -3.63249081      -0.62688662       0.00000000
Si       0.34699329      -2.36905470       2.92175354       0.00000000
Si       1.25480241       2.36618766       2.66731354       0.00000000
Si      -3.70822302      -0.33238116       0.68443158       0.00000000
Si       2.36360962       2.81443959      -0.99332826       0.00000000
