10
Lattice="16.28999089631971 0.0 0.0 0.0 16.28999089631971 0.0 0.0 0.0 34.31420841018396" Properties=species:S:1:pos:R:3:initial_magmoms:R:1 pbc="T T T"
Si      -1.35871632      -1.35718506      -1.35609827       0.00000000
Si       1.35741312       1.35713619      -1.35767673       0.00000000
Si       1.35766134      -1.35707103       1.35801987       0.00000000
Si      -1.35783666       1.35782037       1.35716202       0.00000000
Si      -2.71404432      -0.00084708      -2.71380932       0.00000000
Si      -0.00211770       2.71241532       2.71573091       0.00000000
Si       0.00361638      -2.71362078      -2.71531914       0.00000000
Si      -2.71521720      -2.71406061       0.00037746       0.00000000
Si      -0.00061902      -2.71518462       2.71463286       0.00000000
Si      -2.71578735       0.00148239       2.71428972       0.00000000
