10
Lattice="16.28999089631971 0.0 0.0 0.0 16.28999089631971 0.0 0.0 0.0 34.31420841018396" Properties=species:S:1:pos:R:3:initial_magmoms:R:1 pbc="T T T"
Si       1.50516342      -1.19084787      -1.36714746       0.00000000
Si       0.98370423       1.68480954       1.35928950       0.00000000
Si      -1.28979822      -1.43425305       1.40980004       0.00000000
Si      -1.22193408       1.51830945      -1.38636342       0.00000000
Si      -2.34019371       0.10467954       2.83895331       0.00000000
Si       2.25476406       0.28667142       2.90991513       0.00000000
Si       0.13608666      -2.53632042      -2.73992244       0.00000000
Si      -2.57788340       0.18138915      -2.74314798       0.00000000
Si      -2.57531523       2.79484272       0.02817198       0.00000000
Si       3.00990330      -2.46386250       0.10067794       0.00000000
