10
Lattice="16.28999089631971 0.0 0.0 0.0 16.28999089631971 0.0 0.0 0.0 34.31420841018396" Properties=species:S:1:pos:R:3:initial_magmoms:R:1 pbc="T T T"
Si      -1.35493704       1.35912357      -1.35963264       0.00000000
Si      -1.34928441      -1.34690607       1.37877998       0.00000000
Si       1.36023129      -1.35754344      -1.35928950       0.00000000
Si       1.37331216       1.35710361       1.37404462       0.00000000
Si      -2.70739800       2.71063971      -0.00216180       0.00000000
Si      -2.71151937       0.00068418      -2.71573091       0.00000000
Si      -2.71368594      -2.71396287       0.00295102       0.00000000
Si       0.00309510      -2.71423980      -2.71607406       0.00000000
Si       0.00301365       2.71546155      -2.71676034       0.00000000
Si       2.72104902      -2.71195920      -0.00116668       0.00000000
