10
Lattice="16.28999089631971 0.0 0.0 0.0 16.28999089631971 0.0 0.0 0.0 34.31420841018396" Properties=species:S:1:pos:R:3:initial_magmoms:R:1 pbc="T T T"
Si       1.11838995       1.35550719      -1.55343940       0.00000000
Si      -0.13602150       1.55947428       1.77610442       0.00000000
Si       1.56532239      -1.38917862       1.20820395       0.00000000
Si      -1.58552199      -1.45650519      -1.33763722       0.00000000
Si       2.16378441       2.08441953       1.90028761       0.00000000
Si      -0.57414105       0.24211827       3.68473039       0.00000000
Si       2.00355597       3.15560106      -0.24174373       0.00000000
Si       2.39728527      -0.08674425      -2.92844481       0.00000000
Si      -2.41709391       1.76319702       2.38789278       0.00000000
Si       0.66321477      -1.78007346       3.42037358       0.00000000
