10
Lattice="16.28999089631971 0.0 0.0 0.0 16.28999089631971 0.0 0.0 0.0 34.31420841018396" Properties=species:S:1:pos:R:3:initial_magmoms:R:1 pbc="T T T"
Si       1.74444723       1.30017006       0.78936449       0.00000000
Si      -1.98933480       0.10016721       1.25586642       0.00000000
Si       1.06108173      -1.92683007       0.95609732       0.00000000
Si      -0.45028818      -0.23006367      -2.37396121       0.00000000
Si      -3.13724223      -1.43127198      -0.10253091       0.00000000
Si       2.46386250      -2.34305586      -0.96625433       0.00000000
Si       0.78706764      -2.25225540      -2.63831802       0.00000000
Si      -2.82605436      -0.58166703      -2.25990071       0.00000000
Si       0.76380552       3.32373015       1.35338745       0.00000000
Si       3.38911821       1.54070820      -0.83438476       0.00000000
