10
Lattice="16.28999089631971 0.0 0.0 0.0 16.28999089631971 0.0 0.0 0.0 34.31420841018396" Properties=species:S:1:pos:R:3:initial_magmoms:R:1 pbc="T T T"
Si      -1.64467098      -0.24053814       1.62374925       0.00000000
Si       1.65578958       1.10029176       1.23586122       0.00000000
Si      -0.93644694       1.57431447      -1.46820286       0.00000000
Si       0.70460507      -2.18424465      -0.68031388       0.00000000
Si      -1.10148093       0.07152939      -3.32401923       0.00000000
Si       1.79708252      -0.33111054       3.09020208       0.00000000
Si      -0.40407345      -1.05474492       3.42606974       0.00000000
Si      -2.79821475       2.48505579      -0.07943744       0.00000000
Si       0.63209291       3.02487381       2.18413490       0.00000000
Si       0.70200356       3.31524306      -1.69779935       0.00000000
