10
Lattice="16.28999089631971 0.0 0.0 0.0 16.28999089631971 0.0 0.0 0.0 34.31420841018396" Properties=species:S:1:pos:R:3:initial_magmoms:R:1 pbc="T T T"
Si      -1.90162944      -1.27553958      -0.84618885       0.00000000
Si       0.50291858      -0.05771547       2.48960015       0.00000000
Si      -1.30316742       2.19805857      -0.15410520       0.00000000
Si       1.91916467      -0.50456646      -1.85310555       0.00000000
Si      -2.80373706      -1.66643442       1.36598077       0.00000000
Si      -1.12694220      -1.75723488       3.03804445       0.00000000
Si      -0.20168649       2.12652918       3.16991403       0.00000000
Si      -0.95689089      -2.94199029      -2.27070970       0.00000000
Si       0.28063847      -1.42871445      -3.58672895       0.00000000
Si      -3.60297333       1.67311332      -0.27828839       0.00000000
