10
Lattice="16.28999089631971 0.0 0.0 0.0 16.28999089631971 0.0 0.0 0.0 34.31420841018396" Properties=species:S:1:pos:R:3:initial_magmoms:R:1 pbc="T T T"
Si       0.71271356      -2.20366233      -0.32553908       0.00000000
Si      -1.98765434      -0.16685847       1.29474444       0.00000000
Si       1.72375241       1.32408378       0.99120078       0.00000000
Si      -1.25953791      -0.33111054      -2.48524225       0.00000000
Si      -3.02389382      -2.10528702       0.38411346       0.00000000
Si       0.71124746      -3.17962881       1.77483479       0.00000000
Si       2.85908396      -2.10623184      -1.15141391       0.00000000
Si       3.25217795       1.66521267      -0.83184551       0.00000000
Si      -2.90224010       2.03053221       1.32874983       0.00000000
Si      -2.57526722      -2.20283154      -1.85742914       0.00000000
