10
Lattice="16.28999089631971 0.0 0.0 0.0 16.28999089631971 0.0 0.0 0.0 34.31420841018396" Properties=species:S:1:pos:R:3:initial_magmoms:R:1 pbc="T T T"
Si       0.98064171      -2.02356009      -0.56402296       0.00000000
Si      -2.14312869       0.14493213       0.91663596       0.00000000
Si       1.56071232       0.68126409       1.62450416       0.00000000
Si      -0.17290206       0.70203384      -2.26720965       0.00000000
Si       3.25740560       1.24185186      -0.00363731       0.00000000
Si       0.36738837       2.95813875      -1.91730747       0.00000000
Si      -0.76380552      -3.32373015      -1.35338745       0.00000000
Si      -2.52069831       2.50896951       0.94693542       0.00000000
Si       1.54207656      -1.48449141       3.03643168       0.00000000
Si       2.22123924      -2.83776687       1.23829753       0.00000000
