10
Lattice="16.28999089631971 0.0 0.0 0.0 16.28999089631971 0.0 0.0 0.0 34.31420841018396" Properties=species:S:1:pos:R:3:initial_magmoms:R:1 pbc="T T T"
Si      -1.56071232      -0.68126409      -1.62450416       0.00000000
Si      -0.55666188       1.92456576       1.30095531       0.00000000
Si       1.69669328       0.56058777      -1.62814147       0.00000000
Si      -0.01863576      -2.16575550       1.41192752       0.00000000
Si      -0.58007061      -2.70482418      -2.18852712       0.00000000
Si      -1.12348872       0.87280191       3.25096424       0.00000000
Si       0.66052692      -3.51903096      -0.38620663       0.00000000
Si       3.30671429       1.66496832      -0.36904952       0.00000000
Si      -3.70384101      -0.53633196      -0.70786820       0.00000000
Si      -2.34634644       3.07627269       0.33092641       0.00000000
