10
Lattice="16.28999089631971 0.0 0.0 0.0 16.28999089631971 0.0 0.0 0.0 34.31420841018396" Properties=species:S:1:pos:R:3:initial_magmoms:R:1 pbc="T T T"
Si      -1.76674728      -1.39129632       0.79090863       0.00000000
Si       0.86291062       1.49657859       1.65075455       0.00000000
Si      -0.40804169       1.47297438      -1.84112988       0.00000000
Si       1.52841739      -1.43146746      -1.25181734       0.00000000
Si       2.63854831       2.20779999       0.20255689       0.00000000
Si       1.82339671       2.30391099      -2.07522154       0.00000000
Si      -1.28829369      -0.08952984      -3.39549576       0.00000000
Si      -3.66907719      -0.51025167      -0.33082347       0.00000000
Si       0.26711853      -3.38119964      -1.58058195       0.00000000
Si       3.38510272      -1.71053145       0.13355097       0.00000000
