10
Lattice="16.28999089631971 0.0 0.0 0.0 16.28999089631971 0.0 0.0 0.0 34.31420841018396" Properties=species:S:1:pos:R:3:initial_magmoms:R:1 pbc="T T T"
Si      -1.35553488       1.35469269      -1.35819144       0.00000000
Si      -1.35579389      -1.35740986       1.35675024       0.00000000
Si       1.35944937       1.35760860       1.35633847       0.00000000
Si       1.36107837      -1.35592259      -1.36505429       0.00000000
Si      -2.69512902      -0.02090007      -2.71886380       0.00000000
Si      -2.71308326       0.00011403       2.71422109       0.00000000
Si       0.00221544       2.71524978       2.71411815       0.00000000
Si      -2.71453102       2.71510317       0.00003431       0.00000000
Si       0.00195480      -2.71524333       2.71456423       0.00000000
Si      -2.71447714      -2.71600943       0.00051471       0.00000000
