10
Lattice="16.28999089631971 0.0 0.0 0.0 16.28999089631971 0.0 0.0 0.0 34.31420841018396" Properties=species:S:1:pos:R:3:initial_magmoms:R:1 pbc="T T T"
Si      -1.32843810       1.22595282      -1.47516178       0.00000000
Si      -1.36383627      -1.35128808       1.34708736       0.00000000
Si       1.34822556       1.36122498       1.35614631       0.00000000
Si       1.40522427      -1.27174401      -1.39539150       0.00000000
Si      -2.28621842      -0.76079187      -2.57621407       0.00000000
Si       0.37235682       1.94527035      -3.01896716       0.00000000
Si      -0.27846126      -2.38291749      -2.73261493       0.00000000
Si       2.34520614       0.30936339      -2.98492744       0.00000000
Si       2.70368388       0.00539199       2.70898474       0.00000000
Si      -0.00931788      -2.71005327       2.70984259       0.00000000
