10
Lattice="16.28999089631971 0.0 0.0 0.0 16.28999089631971 0.0 0.0 0.0 34.31420841018396" Properties=species:S:1:pos:R:3:initial_magmoms:R:1 pbc="T T T"
Si      -0.73053712      -1.57218048       1.55254723       0.00000000
Si      -1.74133162       1.37821545      -0.70179458       0.00000000
Si       0.37827009      -1.12392855      -2.10809457       0.00000000
Si       1.33873989       1.94152365       0.96186211       0.00000000
Si       2.65650315      -1.52169777      -1.72415268       0.00000000
Si       2.44678569       2.45043954      -1.16280623       0.00000000
Si      -2.26709137       2.73986397       1.14928642       0.00000000
Si      -1.00528426       2.44806120      -2.65684770       0.00000000
Si      -0.01992104       0.55560303      -3.75085390       0.00000000
Si       0.14416324      -1.19216736       3.63936359       0.00000000
