10
Lattice="16.28999089631971 0.0 0.0 0.0 16.28999089631971 0.0 0.0 0.0 34.31420841018396" Properties=species:S:1:pos:R:3:initial_magmoms:R:1 pbc="T T T"
Si       1.36452371      -1.30704444       1.39686358       0.00000000
Si      -1.34801044      -1.36343295      -1.36313269       0.00000000
Si       1.36774913       1.35387656      -1.35812281       0.00000000
Si      -1.53702570       1.12461110       1.41127555       0.00000000
Si      -0.05813575       2.45594393       2.79159967       0.00000000
Si      -2.70581691       2.69175797       0.00895601       0.00000000
Si       2.69805568      -2.71545408      -0.00720599       0.00000000
Si      -2.70612642      -2.70874260       0.00442654       0.00000000
Si      -2.70580062      -0.00340135      -2.71909371       0.00000000
Si       0.00749992       2.71205531      -2.71854468       0.00000000
