10
Lattice="16.28999089631971 0.0 0.0 0.0 16.28999089631971 0.0 0.0 0.0 34.31420841018396" Properties=species:S:1:pos:R:3:initial_magmoms:R:1 pbc="T T T"
Si      -1.50516342       1.19084787       1.36714746       0.00000000
Si      -1.36907676      -1.34547255      -1.37277499       0.00000000
Si       1.34799750       1.36774098      -1.37270636       0.00000000
Si       1.50473988      -1.27301463       1.46782540       0.00000000
Si       2.71759554      -2.68744438      -0.00693147       0.00000000
Si       2.71326240       2.71363707       0.01159821       0.00000000
Si       2.70073539       0.01011609      -2.73381451       0.00000000
Si      -2.73682588      -2.69934911      -0.01465218       0.00000000
Si      -2.72709750       2.70915732      -0.01921597       0.00000000
Si      -0.01498680      -2.70465151      -2.73302528       0.00000000
