10
Lattice="16.28999089631971 0.0 0.0 0.0 16.28999089631971 0.0 0.0 0.0 34.31420841018396" Properties=species:S:1:pos:R:3:initial_magmoms:R:1 pbc="T T T"
Si       1.24803717       1.37105667      -1.47293822       0.00000000
Si      -1.31478333       1.30774491       1.53731171       0.00000000
Si      -1.42359027      -1.31748633      -1.45876644       0.00000000
Si       1.84744401      -1.20428712       1.17491915       0.00000000
Si       1.06835847      -0.66072240       3.31297005       0.00000000
Si      -1.24046069      -0.05636340       3.59901345       0.00000000
Si       0.00374507       3.42484937       1.70390729       0.00000000
Si       3.11312814       2.22877729      -0.33346566       0.00000000
Si       2.58156915      -0.03735297      -2.87700778       0.00000000
Si      -2.98108207       2.48290129       0.15739936       0.00000000
