10
Lattice="16.28999089631971 0.0 0.0 0.0 16.28999089631971 0.0 0.0 0.0 34.31420841018396" Properties=species:S:1:pos:R:3:initial_magmoms:R:1 pbc="T T T"
Si       1.68399504       0.82086939       1.38351534       0.00000000
Si      -0.54641547       1.39087278      -1.81052159       0.00000000
Si      -1.90144862      -0.21971952       1.40918238       0.00000000
Si       0.76201362      -2.18062827      -0.65965671       0.00000000
Si       2.63409300      -1.12844088       2.20386558       0.00000000
Si       1.01853225       3.18966345      -1.57100828       0.00000000
Si       0.75381975       2.71370223       2.49591397       0.00000000
Si      -3.55723820      -1.32001128       0.17332116       0.00000000
Si      -2.85523464       1.99523178      -1.52447819       0.00000000
Si       3.04005609      -2.28679020       0.17290939       0.00000000
