10
Lattice="16.28999089631971 0.0 0.0 0.0 16.28999089631971 0.0 0.0 0.0 34.31420841018396" Properties=species:S:1:pos:R:3:initial_magmoms:R:1 pbc="T T T"
Si      -2.06894403       0.09554085       1.12063404       0.00000000
Si       1.41467247       0.37150974       1.85320849       0.00000000
Si       0.93017529      -1.89283284      -1.11239863       0.00000000
Si      -0.04150692       1.40857742      -1.93278318       0.00000000
Si       2.05723152       2.41446212      -1.69357870       0.00000000
Si       3.43303605      -0.46887507       1.07015782       0.00000000
Si      -1.59467697      -1.12023072       3.09768258       0.00000000
Si      -0.75381975      -2.71370223      -2.49591397       0.00000000
Si       3.59642475       0.67882436      -1.02537775       0.00000000
Si      -3.67896504      -1.00883970      -0.13845791       0.00000000
