10
Lattice="16.28999089631971 0.0 0.0 0.0 16.28999089631971 0.0 0.0 0.0 34.31420841018396" Properties=species:S:1:pos:R:3:initial_magmoms:R:1 pbc="T T T"
Si      -1.65578958      -1.10029176      -1.23586122       0.00000000
Si       0.14129294      -1.43140230       1.85434086       0.00000000
Si       1.90144862       0.21971952      -1.40918238       0.00000000
Si      -1.02369667       1.92458205       0.94827368       0.00000000
Si      -3.30046056      -1.34082990       0.38788803       0.00000000
Si      -2.05986303      -2.15503668       2.19020852       0.00000000
Si       3.58544366       1.04058891      -0.02566704       0.00000000
Si      -2.59223652       0.47402271      -2.70406408       0.00000000
Si       0.58632434       3.02896260       2.20736563       0.00000000
Si      -0.95378602       2.21495130      -2.93366057       0.00000000
