10
Lattice="16.28999089631971 0.0 0.0 0.0 16.28999089631971 0.0 0.0 0.0 34.28971787722196" Properties=species:S:1:pos:R:3:initial_magmoms:R:1 pbc="T T T"
Si      -1.96112771       0.65416732       1.04882640       0.00000000
Si      -1.02222356       0.74023293      -1.94858289       0.00000000
Si       0.87060276      -2.00239938       0.84750514       0.00000000
Si      -0.39442325       1.89800233       2.29652569       0.00000000
Si       2.44436337      -0.71975736       2.17741686       0.00000000
Si       1.35402480       2.92951934       1.05596792       0.00000000
Si      -3.20035688       0.79403717      -0.98751014       0.00000000
Si       3.24522864       1.16810933       0.83042885       0.00000000
Si       0.24842250       2.57814404      -2.55431109       0.00000000
Si       0.96501960       0.53970399       3.67501769       0.00000000
