10
Lattice="16.28999089631971 0.0 0.0 0.0 16.28999089631971 0.0 0.0 0.0 34.28971787722196" Properties=species:S:1:pos:R:3:initial_magmoms:R:1 pbc="T T T"
Si       0.40990527       1.71440847       1.55414804       0.00000000
Si       1.97397333      -1.27905822       0.42430121       0.00000000
Si      -1.67239493      -1.68735078      -0.29204569       0.00000000
Si      -0.83462630       1.40208030      -1.84447925       0.00000000
Si       2.38224960      -1.15344603      -1.86025252       0.00000000
Si       1.05256206       2.83191876      -1.87263112       0.00000000
Si      -1.77294007       2.08298601       2.35306462       0.00000000
Si       2.70231552       1.15103511      -2.16529402       0.00000000
Si      -1.35504944      -2.10532286      -2.66019780       0.00000000
Si      -3.66628346      -0.69465447       0.49809272       0.00000000
