10
Lattice="16.28999089631971 0.0 0.0 0.0 16.28999089631971 0.0 0.0 0.0 34.28971787722196" Properties=species:S:1:pos:R:3:initial_magmoms:R:1 pbc="T T T"
Si      -1.99388853       0.99269631       0.79013841       0.00000000
Si       0.49809281      -1.62749757       1.66102915       0.00000000
Si       1.67239493       1.68735078       0.29204569       0.00000000
Si       0.31734549      -0.41797208      -2.36815211       0.00000000
Si       0.04967473      -0.02862153       3.39410104       0.00000000
Si       0.83776864       3.08943108      -1.55243355       0.00000000
Si       2.57725556      -1.17650127      -2.26809466       0.00000000
Si      -3.31720668      -0.88598378       1.18549908       0.00000000
Si       2.87163215      -1.73806874       1.39915843       0.00000000
Si      -1.38775392       1.82446371       2.91253597       0.00000000
