10
Lattice="16.28999089631971 0.0 0.0 0.0 16.28999089631971 0.0 0.0 0.0 34.28971787722196" Properties=species:S:1:pos:R:3:initial_magmoms:R:1 pbc="T T T"
Si      -1.35609363       1.35534429      -1.36212551       0.00000000
Si       1.35938421      -1.36226754      -1.36205693       0.00000000
Si       1.36446669       1.36251189       1.37590999       0.00000000
Si      -1.36503684      -1.37060802       1.38005905       0.00000000
Si      -2.71174743       2.71158453       0.00178307       0.00000000
Si      -2.71171485      -2.71469592      -0.00161162       0.00000000
Si       2.71694394       2.71008585      -0.00250315       0.00000000
Si       2.71336014      -2.71432125      -0.00692653       0.00000000
Si      -2.71303434      -0.00234576      -2.71866180       0.00000000
Si       0.00149868       2.71270854      -2.71921044       0.00000000
