10
Lattice="16.28999089631971 0.0 0.0 0.0 16.28999089631971 0.0 0.0 0.0 34.28971787722196" Properties=species:S:1:pos:R:3:initial_magmoms:R:1 pbc="T T T"
Si       1.35247725       1.34757396      -1.37841314       0.00000000
Si      -1.36446669      -1.36251189      -1.37590999       0.00000000
Si       1.35674523      -1.25055072       1.53045383       0.00000000
Si      -1.41698565       1.31430978       1.42943627       0.00000000
Si      -2.34795915      -0.49849029       2.66047212       0.00000000
Si      -0.49484133      -2.17170135       2.94404824       0.00000000
Si       2.69180847      -2.72389977       0.01330442       0.00000000
Si       2.69912268       2.72214045       0.00521204       0.00000000
Si      -2.72877048       2.70656721       0.00010287       0.00000000
Si      -0.00500103       2.70699075      -2.73683536       0.00000000
