10
Lattice="16.28999089631971 0.0 0.0 0.0 16.28999089631971 0.0 0.0 0.0 34.28971787722196" Properties=species:S:1:pos:R:3:initial_magmoms:R:1 pbc="T T T"
Si      -2.23798536      -0.76525533       0.28247885       0.00000000
Si      -0.11062539       0.18169866      -2.42274137       0.00000000
Si       0.97528230       0.57603069       2.20386998       0.00000000
Si       0.75852756      -2.45014632       0.03240380       0.00000000
Si      -1.57532445       2.77469199       0.39395479       0.00000000
Si      -1.65353274      -1.99583451       2.29032988       0.00000000
Si       2.96517096       1.73651400      -0.91807342       0.00000000
Si      -3.36745903       1.30067505      -0.26914015       0.00000000
Si      -0.71837271      -0.29872602       3.57015968       0.00000000
Si       3.67106553      -0.30657780       0.23056419       0.00000000
