10
Lattice="16.28999089631971 0.0 0.0 0.0 16.28999089631971 0.0 0.0 0.0 34.28971787722196" Properties=species:S:1:pos:R:3:initial_magmoms:R:1 pbc="T T T"
Si      -1.69365501      -0.87475671       1.36628970       0.00000000
Si       0.96080049       1.78342920       1.26643113       0.00000000
Si       1.87566318      -1.54041498       0.11886644       0.00000000
Si      -0.97528230      -0.57603069      -2.20386998       0.00000000
Si       2.69578323      -0.88260849      -1.97330579       0.00000000
Si      -0.31030821      -2.23309836       2.72068974       0.00000000
Si       2.42144334       0.48824388       2.69520903       0.00000000
Si      -2.62881504      -2.57186520       0.08645990       0.00000000
Si      -0.21675474      -3.02617701      -2.17146618       0.00000000
Si      -2.55060675       2.19866130      -1.80991519       0.00000000
