10
Lattice="16.28999089631971 0.0 0.0 0.0 16.28999089631971 0.0 0.0 0.0 34.28971787722196" Properties=species:S:1:pos:R:3:initial_magmoms:R:1 pbc="T T T"
Si      -0.88058853       0.32501808      -2.10422404       0.00000000
Si      -1.80020790      -0.87742827       1.22466276       0.00000000
Si       0.83877210       1.82096136       1.24728370       0.00000000
Si       1.75956435      -1.71532071      -0.09806869       0.00000000
Si       0.71794917       2.35465434      -2.41146009       0.00000000
Si      -0.48842307      -2.21763915       2.63273309       0.00000000
Si       2.22163020       0.52243659       2.65044031       0.00000000
Si       2.49411303       2.82119994      -0.09786295       0.00000000
Si       3.51240093      -0.80705547       1.23668131       0.00000000
Si      -2.69208540       1.88910243      -1.97131702       0.00000000
