10
Lattice="16.28999089631971 0.0 0.0 0.0 16.28999089631971 0.0 0.0 0.0 34.28971787722196" Properties=species:S:1:pos:R:3:initial_magmoms:R:1 pbc="T T T"
Si       1.65534093       1.00023858      -1.34514665       0.00000000
Si       1.38285810      -1.29852477       1.40315661       0.00000000
Si      -0.83877210      -1.82096136      -1.24728370       0.00000000
Si      -1.32107013       1.41648066       1.37455897       0.00000000
Si      -0.12082293       0.53369298      -3.65874378       0.00000000
Si       2.67362883      -2.62801683      -0.01060239       0.00000000
Si       3.50285499      -0.65775762      -1.21264455       0.00000000
Si      -2.63898000      -2.69838963      -0.02262094       0.00000000
Si      -2.54754423       2.84868117      -0.12235607       0.00000000
Si       0.03890052      -2.66263308       2.74827442       0.00000000
