10
Lattice="16.28999089631971 0.0 0.0 0.0 16.28999089631971 0.0 0.0 0.0 34.28971787722196" Properties=species:S:1:pos:R:3:initial_magmoms:R:1 pbc="T T T"
Si       1.32217785       0.55475595       1.84118743       0.00000000
Si      -0.43388415       1.52971245      -1.79873674       0.00000000
Si      -1.60844202      -1.57380948       0.85196281       0.00000000
Si       1.55009124      -1.13080293      -1.46060564       0.00000000
Si      -2.93171130       1.70085519      -0.75416848       0.00000000
Si       1.12376565       0.31087836      -3.35799395       0.00000000
Si       2.54161467       2.33497602       1.01607349       0.00000000
Si      -0.31214898      -3.47521086       1.33397364       0.00000000
Si       3.04474761      -1.11125493       1.90949259       0.00000000
Si      -2.86612776      -2.11476780      -1.23748232       0.00000000
