10
Lattice="16.28999089631971 0.0 0.0 0.0 16.28999089631971 0.0 0.0 0.0 34.28971787722196" Properties=species:S:1:pos:R:3:initial_magmoms:R:1 pbc="T T T"
Si       0.88058853      -0.32501808       2.10422404       0.00000000
Si      -1.81149687       1.56408435       0.13290702       0.00000000
Si      -1.81941381      -1.47909942      -0.90943241       0.00000000
Si       1.59853770       2.02963626      -0.30723604       0.00000000
Si      -0.39697101       2.37161223      -1.63267154       0.00000000
Si      -0.91961937      -1.20244635       3.32888680       0.00000000
Si      -3.61218695       0.31858353      -0.85354013       0.00000000
Si       3.18368502      -2.15378235      -0.40808216       0.00000000
Si      -0.40669614       1.16848170      -3.67826009       0.00000000
Si       2.64015288      -2.04033879       2.00615536       0.00000000
