10
Lattice="16.28999089631971 0.0 0.0 0.0 16.28999089631971 0.0 0.0 0.0 34.28971787722196" Properties=species:S:1:pos:R:3:initial_magmoms:R:1 pbc="T T T"
Si       0.43388415      -1.52971245       1.79873674       0.00000000
Si       0.54325521       2.34562968      -0.07060257       0.00000000
Si       1.55764980      -1.21883409      -1.55925721       0.00000000
Si      -2.49782715       0.17114274       1.04456826       0.00000000
Si       1.98397539      -2.66051538       0.33813110       0.00000000
Si      -1.31478219       2.17694673      -2.32251247       0.00000000
Si       1.49415138       2.47977783       2.11526530       0.00000000
Si      -1.52013393       3.48557523       0.03106650       0.00000000
Si       0.22077837      -2.32942113      -3.15846197       0.00000000
Si      -2.46075111       0.34515252      -3.20862785       0.00000000
