10
Lattice="16.28999089631971 0.0 0.0 0.0 16.28999089631971 0.0 0.0 0.0 34.28971787722196" Properties=species:S:1:pos:R:3:initial_magmoms:R:1 pbc="T T T"
Si       1.87395273      -0.06128298      -1.41133129       0.00000000
Si      -1.84049307       0.49195800      -1.39771826       0.00000000
Si      -0.07012845       2.23446739       0.82281653       0.00000000
Si       0.34824762      -2.11305735       1.09854031       0.00000000
Si       0.33852249      -3.31618788      -0.94704825       0.00000000
Si       1.60635690      -2.10724182      -2.52430757       0.00000000
Si      -1.46699595       2.81262230      -2.04733733       0.00000000
Si       0.46656189       3.61211921      -1.04076210       0.00000000
Si       1.49234319       1.39046294      -3.27017793       0.00000000
Si       3.87166059      -0.33321195      -0.08521000       0.00000000
