10
Lattice="16.28999089631971 0.0 0.0 0.0 16.28999089631971 0.0 0.0 0.0 34.28971787722196" Properties=species:S:1:pos:R:3:initial_magmoms:R:1 pbc="T T T"
Si       1.35708732       1.35775521       1.35547331       0.00000000
Si      -1.35679410       1.35700587      -1.35811361       0.00000000
Si      -1.35863487      -1.35753692       1.35605623       0.00000000
Si       1.35723393      -1.35769005      -1.35807933       0.00000000
Si      -2.71454931      -2.71471754      -0.00013716       0.00000000
Si      -2.71772586       0.00270414       2.71159812       0.00000000
Si      -2.71533123       2.71479366      -0.00092582       0.00000000
Si       2.71469592      -0.00109143      -2.71578146       0.00000000
Si       2.71520091      -2.71529976      -0.00037719       0.00000000
Si       2.71534752       2.71518462      -0.00041148       0.00000000
