10
Lattice="16.28999089631971 0.0 0.0 0.0 16.28999089631971 0.0 0.0 0.0 34.28971787722196" Properties=species:S:1:pos:R:3:initial_magmoms:R:1 pbc="T T T"
Si      -0.52114968      -1.58195448      -1.60242799       0.00000000
Si       2.23798536       0.76525533      -0.28247885       0.00000000
Si      -1.12947367       2.06593038      -0.55161900       0.00000000
Si       0.58445262      -1.23057918       2.00785102       0.00000000
Si       2.99651292      -1.68489099      -0.25007505       0.00000000
Si      -2.43697309       1.99339101       1.61562954       0.00000000
Si       2.12735997       0.94695399      -2.70522022       0.00000000
Si       0.66266091       3.53994732       0.11147594       0.00000000
Si       1.68762771      -2.50534336      -2.00824703       0.00000000
Si       1.51961265       0.46652931       3.28768082       0.00000000
