10
Lattice="16.28999089631971 0.0 0.0 0.0 16.28999089631971 0.0 0.0 0.0 34.28971787722196" Properties=species:S:1:pos:R:3:initial_magmoms:R:1 pbc="T T T"
Si      -0.26389800      -2.26244384       0.57901650       0.00000000
Si       0.43831503       0.17410752      -2.30766501       0.00000000
Si       2.01275982       0.67740336       1.02591464       0.00000000
Si      -1.65369564       1.80502974       0.13403858       0.00000000
Si      -1.77293844       0.59116410      -2.95176343       0.00000000
Si      -1.01344977      -2.01377699       2.76416428       0.00000000
Si      -2.28483540      -2.72830526      -0.57178137       0.00000000
Si       2.40222114       2.70071910      -0.14079366       0.00000000
Si       1.71848097       2.17862460      -2.42740477       0.00000000
Si      -0.78558525       3.22905267       1.77521398       0.00000000
