10
Lattice="16.28999089631971 0.0 0.0 0.0 16.28999089631971 0.0 0.0 0.0 34.28971787722196" Properties=species:S:1:pos:R:3:initial_magmoms:R:1 pbc="T T T"
Si       2.30273811      -0.24312825      -0.19263974       0.00000000
Si      -0.82012005      -0.65780649       2.09217223       0.00000000
Si      -0.81627561      -1.85142366      -1.22188049       0.00000000
Si      -0.70589457       2.04309180      -1.14863761       0.00000000
Si       1.17094149      -0.00692325       3.25028787       0.00000000
Si      -2.69578323       0.88260849       1.97330579       0.00000000
Si      -0.45597339      -0.80993880      -3.39468397       0.00000000
Si      -2.91253797      -2.14356852      -0.19816039       0.00000000
Si       1.30026780       2.65989636      -2.15826463       0.00000000
Si       2.69967654       0.82718991      -2.36300865       0.00000000
