10
Lattice="16.28999089631971 0.0 0.0 0.0 16.28999089631971 0.0 0.0 0.0 34.28971787722196" Properties=species:S:1:pos:R:3:initial_magmoms:R:1 pbc="T T T"
Si       1.35739683      -1.35746199       1.36106253       0.00000000
Si      -1.35733167       1.36013355       1.36047961       0.00000000
Si      -1.35651717      -1.37837835      -1.36294161       0.00000000
Si       1.38873879       1.35068535      -1.36439549       0.00000000
Si      -2.60837109      -0.01554066      -2.79884835       0.00000000
Si      -2.71355562      -2.71170019       0.00394332       0.00000000
Si       2.71332756       2.71453302       0.00545207       0.00000000
Si       2.71647153      -2.71545178      -0.00171449       0.00000000
Si      -2.71409319       0.00063531       2.71873038       0.00000000
Si      -0.00006516      -2.71406061       2.71876467       0.00000000
