10
Lattice="16.28999089631971 0.0 0.0 0.0 16.28999089631971 0.0 0.0 0.0 34.28971787722196" Properties=species:S:1:pos:R:3:initial_magmoms:R:1 pbc="T T T"
Si       1.35700587       1.35697329       1.35602194       0.00000000
Si      -1.35703845       1.35767376      -1.35687918       0.00000000
Si       1.35853713      -1.35778779      -1.35718779       0.00000000
Si      -1.35637056      -1.36003581       1.35739353       0.00000000
Si      -0.00239463      -2.71208952       2.71252394       0.00000000
Si      -2.71440270      -2.71450044       0.00030861       0.00000000
Si      -2.71489140      -0.00016290      -2.71423843       0.00000000
Si      -2.71425609       2.71494027       0.00024003       0.00000000
Si       0.00118917       2.71231758       2.71694731       0.00000000
Si      -0.00083079      -2.71471221      -2.71464990       0.00000000
