10
Lattice="16.28999089631971 0.0 0.0 0.0 16.28999089631971 0.0 0.0 0.0 34.28971787722196" Properties=species:S:1:pos:R:3:initial_magmoms:R:1 pbc="T T T"
Si      -1.35483930      -1.35355239      -1.35399885       0.00000000
Si      -1.18250739       1.49723019       1.36802335       0.00000000
Si       1.35930276       1.35755973      -1.35434174       0.00000000
Si       1.21994181      -1.35032697       1.50857698       0.00000000
Si      -0.67531824      -2.36382561       2.43618295       0.00000000
Si       2.13519546       0.60533640       2.74479058       0.00000000
Si       0.51831522       2.39448339       2.75446029       0.00000000
Si      -2.54901033       0.23250717       2.75017407       0.00000000
Si       0.00034209      -2.71228500      -2.71543857       0.00000000
Si       0.00060273       2.71723716      -2.71266110       0.00000000
