10
Lattice="16.28999089631971 0.0 0.0 0.0 16.28999089631971 0.0 0.0 0.0 34.28971787722196" Properties=species:S:1:pos:R:3:initial_magmoms:R:1 pbc="T T T"
Si      -1.35674523       1.25055072      -1.53045383       0.00000000
Si       1.51760898       1.47356082       1.19619748       0.00000000
Si       1.33506324      -1.47334905      -1.51714942       0.00000000
Si      -1.85158656      -0.92115063       1.41359441       0.00000000
Si       3.39130107      -1.12277196       0.88220635       0.00000000
Si      -2.77373088       2.56486050      -0.10101757       0.00000000
Si      -2.64771144      -2.74305681      -0.02856335       0.00000000
Si      -0.00426798       2.59812468      -2.90886697       0.00000000
Si       2.47624290      -3.03932304      -0.02924915       0.00000000
Si       0.31723146       2.92543965       2.60732303       0.00000000
