10
Lattice="16.28999089631971 0.0 0.0 0.0 16.28999089631971 0.0 0.0 0.0 34.28971787722196" Properties=species:S:1:pos:R:3:initial_magmoms:R:1 pbc="T T T"
Si       0.45051624       1.69002234       1.58360293       0.00000000
Si       0.18555939       1.21668381      -2.03417007       0.00000000
Si       1.64243925      -1.70308692       0.27887843       0.00000000
Si      -2.01178242      -1.14435621       0.64012081       0.00000000
Si       1.96050150       3.00833946       0.29808068       0.00000000
Si       2.32617942      -1.18099242       2.56548955       0.00000000
Si       0.36227331      -3.70760400       0.39861819       0.00000000
Si      -1.78132779       2.50766631      -2.18233602       0.00000000
Si      -1.84898016      -3.29054742      -0.24548023       0.00000000
Si       1.06645743       0.52820325       3.65243992       0.00000000
