10
Lattice="16.28999089631971 0.0 0.0 0.0 16.28999089631971 0.0 0.0 0.0 34.28971787722196" Properties=species:S:1:pos:R:3:initial_magmoms:R:1 pbc="T T T"
Si       2.02693212       0.67287474       1.08580681       0.00000000
Si      -0.82922616      -1.97025921       1.20204216       0.00000000
Si      -1.84751406       1.65799620      -0.13250210       0.00000000
Si       0.37222650       0.66122739      -2.40851768       0.00000000
Si       0.61711407       2.07348894       2.57712577       0.00000000
Si      -2.11999689      -0.64076715       2.61580116       0.00000000
Si      -0.83530233       3.42373446       1.18414292       0.00000000
Si      -3.50285499       0.65775762       1.21264455       0.00000000
Si       1.46870640       2.83817412      -1.99330326       0.00000000
Si      -2.58206274      -2.87852445      -0.13270784       0.00000000
