10
Lattice="16.28999089631971 0.0 0.0 0.0 16.28999089631971 0.0 0.0 0.0 34.28971787722196" Properties=species:S:1:pos:R:3:initial_magmoms:R:1 pbc="T T T"
Si      -1.55009124       1.13080293       1.46060564       0.00000000
Si      -0.42632559       1.44168129      -1.89738831       0.00000000
Si      -1.20404277      -1.99717029      -0.87696002       0.00000000
Si       2.28897306      -0.11372049       1.10971876       0.00000000
Si      -1.98397539       2.66051538      -0.33813110       0.00000000
Si       1.49465637       0.01954800       3.37009823       0.00000000
Si      -0.22791339       1.68555888       3.30179307       0.00000000
Si      -3.09646836      -1.09175580      -1.95033166       0.00000000
Si      -1.76319702       0.33109425      -3.49659307       0.00000000
Si      -3.15853326      -0.44300655       2.31256845       0.00000000
