10
Lattice="16.28999089631971 0.0 0.0 0.0 16.28999089631971 0.0 0.0 0.0 34.28971787722196" Properties=species:S:1:pos:R:3:initial_magmoms:R:1 pbc="T T T"
Si      -1.30706073       1.39251170       1.32282948       0.00000000
Si      -1.36480878      -1.32554988      -1.36480011       0.00000000
Si       1.35062019       1.38776743      -1.36377142       0.00000000
Si       1.24245459      -1.50988752       1.53933488       0.00000000
Si       0.31363137       1.64122794       3.02867531       0.00000000
Si       2.20850046       0.07872957       3.01406789       0.00000000
Si       2.68607439      -2.68095933      -0.00161162       0.00000000
Si      -0.00868257      -2.68714953      -2.72517685       0.00000000
Si      -2.74455549      -2.68073127       0.01813927       0.00000000
Si       2.70453096       0.02774187      -2.72483395       0.00000000
