10
Lattice="16.28999089631971 0.0 0.0 0.0 16.28999089631971 0.0 0.0 0.0 34.28971787722196" Properties=species:S:1:pos:R:3:initial_magmoms:R:1 pbc="T T T"
Si       0.42699348       1.49056304       1.76136092       0.00000000
Si       1.48006053       0.40153221      -1.84564510       0.00000000
Si      -1.99770786       0.27192897      -1.32612129       0.00000000
Si       0.39117177      -2.13159537       1.12710366       0.00000000
Si       2.75144616       1.11606048       1.49030055       0.00000000
Si      -1.52790426      -2.12182137       2.50918580       0.00000000
Si       0.78926679      -3.48806367      -0.70413975       0.00000000
Si       3.50099793       0.86739363      -0.69484723       0.00000000
Si      -2.26530369      -1.77402987      -2.43909758       0.00000000
Si       0.46335276       2.26586799      -3.10030657       0.00000000
