10
Lattice="16.28999089631971 0.0 0.0 0.0 16.28999089631971 0.0 0.0 0.0 34.28971787722196" Properties=species:S:1:pos:R:3:initial_magmoms:R:1 pbc="T T T"
Si      -0.81303390       1.59115833      -1.47168122       0.00000000
Si       2.33580681      -0.08798229      -0.52552451       0.00000000
Si      -1.09647990      -2.17694673      -0.41521443       0.00000000
Si      -0.67596984       1.78616592       1.66267506       0.00000000
Si       2.39785542      -1.25742510       1.68993540       0.00000000
Si      -0.37527273       3.44021409      -0.13739898       0.00000000
Si      -1.46870640      -2.83817412       1.99330326       0.00000000
Si       0.55822572      -2.16529938       3.07911007       0.00000000
Si       3.12616503       2.18205920      -0.08133526       0.00000000
Si      -3.13748658       1.96566089      -1.20062085       0.00000000
