10
Lattice="16.28999089631971 0.0 0.0 0.0 16.28999089631971 0.0 0.0 0.0 34.28971787722196" Properties=species:S:1:pos:R:3:initial_magmoms:R:1 pbc="T T T"
Si       1.96112771      -0.65416732      -1.04882640       0.00000000
Si       1.56670445       1.24383500       1.24769929       0.00000000
Si      -1.26814392      -1.56525073       1.23300614       0.00000000
Si      -1.23922917       0.13986985      -2.03633654       0.00000000
Si       0.93890414       0.08606561      -2.99740929       0.00000000
Si      -2.52019332      -0.10086346       2.62842699       0.00000000
Si       0.20103489       2.63283606       2.61717309       0.00000000
Si      -2.02958739      -2.13017164      -2.48052579       0.00000000
Si      -1.96753878      -3.29961445      -0.26506588       0.00000000
Si       0.19808640      -2.80245994       2.63842930       0.00000000
