10
Lattice="16.28999089631971 0.0 0.0 0.0 16.28999089631971 0.0 0.0 0.0 34.28971787722196" Properties=species:S:1:pos:R:3:initial_magmoms:R:1 pbc="T T T"
Si      -1.35314514      -1.35390849       1.37171978       0.00000000
Si       1.36573731       1.35863782       1.36637058       0.00000000
Si       1.25204940      -1.46438727      -1.39542085       0.00000000
Si      -1.31512428       1.38471974      -1.44330647       0.00000000
Si       2.52019332       0.10086346      -2.62842699       0.00000000
Si      -2.69679321      -2.70601107      -0.01299924       0.00000000
Si      -2.70725139       2.69571124       0.00514346       0.00000000
Si       2.71827972      -2.70159648       0.01000232       0.00000000
Si      -2.70749574       0.00128849       2.73027916       0.00000000
Si       0.00711873      -2.71107726       2.72904473       0.00000000
