10
Lattice="16.28999089631971 0.0 0.0 0.0 16.28999089631971 0.0 0.0 0.0 34.28971787722196" Properties=species:S:1:pos:R:3:initial_magmoms:R:1 pbc="T T T"
Si      -1.28016594      -2.00451708       0.11973976       0.00000000
Si      -1.64243925       1.70308692      -0.27887843       0.00000000
Si       1.67884740      -0.30291255      -1.72727692       0.00000000
Si       0.68374017       0.52209450       2.28661111       0.00000000
Si      -1.71848097      -2.17862460       2.42740477       0.00000000
Si      -3.65422167       0.55873071       0.36124238       0.00000000
Si       0.29427885      -1.50122124       3.45331942       0.00000000
Si      -1.19192301       3.39310926       1.30472449       0.00000000
Si       2.97539198       0.93327039       2.23545083       0.00000000
Si      -3.49141941      -1.58746050      -0.52435866       0.00000000
