10
Lattice="16.28999089631971 0.0 0.0 0.0 16.28999089631971 0.0 0.0 0.0 34.28971787722196" Properties=species:S:1:pos:R:3:initial_magmoms:R:1 pbc="T T T"
Si      -1.20383100       1.95349028      -0.46620326       0.00000000
Si       2.17813331      -0.05380424      -0.96107275       0.00000000
Si       1.23922917      -0.13986985       2.03633654       0.00000000
Si      -0.79035822      -2.27004149      -0.44418925       0.00000000
Si       3.20035688      -0.79403717       0.98751014       0.00000000
Si       1.83677799      -0.98464646      -3.02764662       0.00000000
Si      -0.02891475      -1.70512058       3.26934267       0.00000000
Si      -3.50143776       1.25815489      -0.05606372       0.00000000
Si      -1.58433282       2.88324203       1.92653459       0.00000000
Si      -3.12616503      -2.18205920       0.08133526       0.00000000
