10
Lattice="16.28999089631971 0.0 0.0 0.0 16.28999089631971 0.0 0.0 0.0 34.28971787722196" Properties=species:S:1:pos:R:3:initial_magmoms:R:1 pbc="T T T"
Si       1.35713669      -1.35772263       1.35807933       0.00000000
Si      -1.35767376       1.35744570       1.35787359       0.00000000
Si       1.35821364       1.35969372      -1.35667345       0.00000000
Si      -1.35832536      -1.35883035      -1.35749640       0.00000000
Si      -0.00239463       2.71316466      -2.71310686       0.00000000
Si       2.71408246      -0.00125433       2.71458132       0.00000000
Si       2.71471940       2.71453302       0.00041148       0.00000000
Si      -0.00030951       2.71492398       2.71440987       0.00000000
Si      -2.71497285       2.71471221       0.00054864       0.00000000
Si      -2.71593396       0.00001629       2.71375837       0.00000000
