10
Lattice="16.28999089631971 0.0 0.0 0.0 16.28999089631971 0.0 0.0 0.0 34.28971787722196" Properties=species:S:1:pos:R:3:initial_magmoms:R:1 pbc="T T T"
Si       0.91872342      -1.58680890       1.47610460       0.00000000
Si       1.69482789       1.63879029      -0.24626889       0.00000000
Si      -1.77345972       1.13313240       1.09668866       0.00000000
Si       1.39481496       0.75640986      -2.60224814       0.00000000
Si      -2.28037194       2.78335827      -0.46952937       0.00000000
Si       3.75038058       0.50992587      -0.86646737       0.00000000
Si       1.88889066       2.86897851       1.84554223       0.00000000
Si       2.91261195      -2.57950521       0.68596619       0.00000000
Si      -0.40459473      -3.46548899       1.87146527       0.00000000
Si       1.52485803      -0.75504150       3.59850216       0.00000000
