10
Lattice="16.28999089631971 0.0 0.0 0.0 16.28999089631971 0.0 0.0 0.0 34.28971787722196" Properties=species:S:1:pos:R:3:initial_magmoms:R:1 pbc="T T T"
Si      -0.30183741       2.46808161      -0.44765252       0.00000000
Si       0.30001293       0.88238043       2.35597925       0.00000000
Si       2.15515464      -1.66333932      -0.15745847       0.00000000
Si       2.35556562      -0.24648399       1.73578078       0.00000000
Si      -1.39481496      -0.75640986       2.60224814       0.00000000
Si       2.01844081       2.37840516       0.65335665       0.00000000
Si       2.07260832      -1.01908611      -2.48350278       0.00000000
Si      -0.83859291       2.34232281      -2.85438058       0.00000000
Si      -2.51999784       2.95922511       0.31124794       0.00000000
Si       1.83514248      -3.75388715       0.92006222       0.00000000
