10
Lattice="16.28999089631971 0.0 0.0 0.0 16.28999089631971 0.0 0.0 0.0 34.28971787722196" Properties=species:S:1:pos:R:3:initial_magmoms:R:1 pbc="T T T"
Si       1.70546593       1.44598185      -0.73520625       0.00000000
Si       0.92317615      -1.67814693       1.48553428       0.00000000
Si      -0.19406277      -1.23018822      -2.09181112       0.00000000
Si      -1.81651419       1.24667370       1.04216798       0.00000000
Si       0.87171930       3.26744820       0.47930194       0.00000000
Si       3.59750708      -0.02899620      -0.56800949       0.00000000
Si      -3.49975989      -0.40133673       1.16718836       0.00000000
Si       3.10602149      -2.04672447       0.68661769       0.00000000
Si       1.30614427       2.47671531       2.62621667       0.00000000
Si      -1.88889066      -2.86897851      -1.84554223       0.00000000
