10
Lattice="16.28999089631971 0.0 0.0 0.0 16.28999089631971 0.0 0.0 0.0 34.28971787722196" Properties=species:S:1:pos:R:3:initial_magmoms:R:1 pbc="T T T"
Si      -1.35435060       1.35519698       1.35855938       0.00000000
Si       1.36026387      -1.35716877       1.35732495       0.00000000
Si       1.35314514       1.35390849      -1.37171978       0.00000000
Si      -1.34364807      -1.35210258      -1.38471902       0.00000000
Si       2.60519454      -0.11047878      -2.76714063       0.00000000
Si      -2.70896184      -2.71844262      -0.00017145       0.00000000
Si      -2.71114470       2.71629790       0.00030861       0.00000000
Si      -2.71208952      -0.00060273       2.71591862       0.00000000
Si       0.00234576       2.71393748       2.71512996       0.00000000
Si       0.00239463      -2.71595025       2.71499280       0.00000000
