10
Lattice="16.28999089631971 0.0 0.0 0.0 16.28999089631971 0.0 0.0 0.0 34.28971787722196" Properties=species:S:1:pos:R:3:initial_magmoms:R:1 pbc="T T T"
Si      -1.18540701      -1.81441278      -0.91347859       0.00000000
Si       0.40501827      -0.64034361       2.22948441       0.00000000
Si       2.02561263       0.27793998      -1.32749288       0.00000000
Si      -2.78474292      -1.93557780       1.00770679       0.00000000
Si      -3.07322253       1.70039648       0.57517605       0.00000000
Si      -0.05654259       1.24819260       3.56565260       0.00000000
Si      -1.45591875      -1.83334176       3.02157734       0.00000000
Si       0.18674856      -3.82121046      -0.26567688       0.00000000
Si       2.10009051      -2.31174648       2.26490571       0.00000000
Si       1.30595301       1.55572825      -3.35312481       0.00000000
