10
Lattice="16.28999089631971 0.0 0.0 0.0 16.28999089631971 0.0 0.0 0.0 34.28971787722196" Properties=species:S:1:pos:R:3:initial_magmoms:R:1 pbc="T T T"
Si       1.18540701       1.81441278       0.91347859       0.00000000
Si      -1.59933591      -0.12116502       1.92118539       0.00000000
Si       1.37215557      -2.00679768       0.64780171       0.00000000
Si      -0.54200088       0.92887209      -2.56967289       0.00000000
Si      -3.08068335       1.55334924       1.22164046       0.00000000
Si       1.59042528       1.17406917       3.14296301       0.00000000
Si      -0.30188628      -3.70066446       0.55422502       0.00000000
Si       3.21101964       2.09235276      -0.41401429       0.00000000
Si       3.14362791      -2.18160567      -0.84579065       0.00000000
Si      -0.27051174      -0.01892898       3.93505593       0.00000000
