10
Lattice="16.28999089631971 0.0 0.0 0.0 16.28999089631971 0.0 0.0 0.0 34.28971787722196" Properties=species:S:1:pos:R:3:initial_magmoms:R:1 pbc="T T T"
Si      -1.08766882       1.83769119      -0.99608257       0.00000000
Si       1.20346822       1.22751666       1.63176770       0.00000000
Si      -1.35438499      -1.41946173       1.42480171       0.00000000
Si       1.30749942       0.07253937      -2.16724854       0.00000000
Si       2.43697309      -1.99339101      -1.61562954       0.00000000
Si       2.42959372       2.73196332       0.36002993       0.00000000
Si       3.09963400       1.54655631      -1.50415360       0.00000000
Si      -2.93039362       2.62339047       0.24482872       0.00000000
Si      -0.09645490       2.54894517       3.03650507       0.00000000
Si      -3.11728879      -2.47621032       0.27527801       0.00000000
