10
Lattice="16.28999089631971 0.0 0.0 0.0 16.28999089631971 0.0 0.0 0.0 34.28971787722196" Properties=species:S:1:pos:R:3:initial_magmoms:R:1 pbc="T T T"
Si      -1.35576418      -1.35654975       1.35801075       0.00000000
Si      -1.35548725       1.35878148      -1.35924518       0.00000000
Si       1.35882327       1.35865116       1.35770214       0.00000000
Si       1.35969967      -1.35466011      -1.36157688       0.00000000
Si      -0.00315661      -2.71244790      -2.70628664       0.00000000
Si      -2.71306327       0.00117288       2.71458132       0.00000000
Si      -2.71337278      -2.71459818       0.00000000       0.00000000
Si       0.00151992      -2.71410948       2.71488993       0.00000000
Si       0.00147820       2.71593396       2.71478706       0.00000000
Si      -2.71350310       2.71733490      -0.00024003       0.00000000
