10
Lattice="16.28999089631971 0.0 0.0 0.0 16.28999089631971 0.0 0.0 0.0 34.28971787722196" Properties=species:S:1:pos:R:3:initial_magmoms:R:1 pbc="T T T"
Si       1.27571877      -0.27253170       1.90928685       0.00000000
Si       1.65573189      -0.45980154      -1.60325095       0.00000000
Si      -1.64427839      -1.72460601      -0.11843675       0.00000000
Si      -1.55592143       1.84790502       0.13352424       0.00000000
Si      -0.27424215       0.65173032       3.34441521       0.00000000
Si      -1.20985341      -2.51533890       2.02847797       0.00000000
Si       0.23196960      -0.60738894      -3.45595973       0.00000000
Si      -2.65284998       1.40353011      -1.87256254       0.00000000
Si      -0.72166492       1.55465244      -3.19758656       0.00000000
Si      -2.23031996      -0.55480482       2.86422173       0.00000000
