10
Lattice="16.28999089631971 0.0 0.0 0.0 16.28999089631971 0.0 0.0 0.0 34.28971787722196" Properties=species:S:1:pos:R:3:initial_magmoms:R:1 pbc="T T T"
Si       1.45049418      -1.71795969      -0.55292201       0.00000000
Si      -2.23622115      -0.04396671      -0.61790106       0.00000000
Si       0.24935103       2.19884049      -0.73709219       0.00000000
Si      -0.54191943      -0.15768720       2.30300161       0.00000000
Si      -1.30060989       3.12310251       0.69803618       0.00000000
Si      -0.67660515       2.15060580       2.68382343       0.00000000
Si       3.25707147      -1.03304664       0.79449321       0.00000000
Si       0.34542945      -3.51660375       0.69841336       0.00000000
Si      -3.09699683      -1.73670948       0.74467022       0.00000000
Si      -1.02636774       2.47137219      -2.64637904       0.00000000
