10
Lattice="16.28999089631971 0.0 0.0 0.0 16.28999089631971 0.0 0.0 0.0 34.28971787722196" Properties=species:S:1:pos:R:3:initial_magmoms:R:1 pbc="T T T"
Si      -1.35562973      -1.35493704      -1.35869654       0.00000000
Si       1.36297453      -1.35417141       1.35591907       0.00000000
Si       1.35956992       1.35987798      -1.35845651       0.00000000
Si      -1.35891310       1.36356185       1.36167975       0.00000000
Si      -2.71310017      -2.71482624      -0.00294892       0.00000000
Si       0.00171534      -2.71221984      -2.71578146       0.00000000
Si       2.71519114      -2.71331127      -0.00113156       0.00000000
Si      -2.71277437       0.00250866      -2.71615865       0.00000000
Si      -2.71342597       2.71733394      -0.00168020       0.00000000
Si       2.71524001       2.71621808      -0.00157733       0.00000000
