10
Lattice="16.28999089631971 0.0 0.0 0.0 16.28999089631971 0.0 0.0 0.0 34.28971787722196" Properties=species:S:1:pos:R:3:initial_magmoms:R:1 pbc="T T T"
Si      -1.69114896      -0.77770089      -1.59879328       0.00000000
Si      -1.35614087      -0.29812329       2.06828836       0.00000000
Si       1.70515575      -1.84065597      -0.07907213       0.00000000
Si       1.01783178       1.88318916      -1.51317181       0.00000000
Si       2.41614909       1.12304889       2.02806650       0.00000000
Si      -0.34271879      -2.08226925      -2.99064800       0.00000000
Si      -2.51710541       1.87655913       2.18634792       0.00000000
Si       2.36812617       0.65091582      -2.98516164       0.00000000
Si      -3.39885053      -1.81219734      -0.35393867       0.00000000
Si       3.52628001      -0.79706970      -1.50189048       0.00000000
