10
Lattice="16.28999089631971 0.0 0.0 0.0 16.28999089631971 0.0 0.0 0.0 34.28971787722196" Properties=species:S:1:pos:R:3:initial_magmoms:R:1 pbc="T T T"
Si       1.73410308      -1.56522465      -0.07307143       0.00000000
Si       0.04178385       1.70580965      -1.61429224       0.00000000
Si       0.33616044       1.14424218       2.05296085       0.00000000
Si      -1.76486023      -1.41248961      -0.78646941       0.00000000
Si      -2.03737890       1.25481334       2.31483157       0.00000000
Si       1.16273133       0.27256428      -3.21212541       0.00000000
Si       0.61253658      -3.42694359       0.80786620       0.00000000
Si       3.47169222      -0.66849273       1.12370897       0.00000000
Si      -2.21812622       2.46433884      -1.71434969       0.00000000
Si       1.11089655       3.29060348       1.37014931       0.00000000
