10
Lattice="16.28999089631971 0.0 0.0 0.0 16.28999089631971 0.0 0.0 0.0 34.28971787722196" Properties=species:S:1:pos:R:3:initial_magmoms:R:1 pbc="T T T"
Si      -1.93118506      -0.15112233       1.32502402       0.00000000
Si       0.95363452      -2.16204138      -0.25837317       0.00000000
Si       1.76486023       1.41248961       0.78646941       0.00000000
Si      -0.84469840       0.26388171      -2.38543414       0.00000000
Si      -0.83425651       0.29325258       3.33111079       0.00000000
Si       2.37739681      -2.01445398       1.59433561       0.00000000
Si       3.49896331      -0.15273504       0.71339798       0.00000000
Si       0.72166492      -1.55465244       3.19758656       0.00000000
Si      -2.59948231      -2.42294202       0.84651074       0.00000000
Si       1.80664408       3.11829926      -0.82782283       0.00000000
