10
Lattice="16.28999089631971 0.0 0.0 0.0 16.28999089631971 0.0 0.0 0.0 34.56409401068381" Properties=species:S:1:pos:R:3:initial_magmoms:R:1 pbc="T T T"
Si      -1.09203273      -1.76875191       1.08572793       0.00000000
Si       1.55737287      -0.28287585      -1.73204228       0.00000000
Si      -1.50327378       1.10789919      -1.45933143       0.00000000
Si       1.53619587       1.01219544       1.53920909       0.00000000
Si      -0.28230570       3.05872443      -1.89186674       0.00000000
Si       1.79277966       2.05962615      -2.38402515       0.00000000
Si       3.30317217      -1.56123360      -0.79957163       0.00000000
Si       2.52615546      -2.57103441       1.23241802       0.00000000
Si       0.42761250      -3.59308530       1.31243395       0.00000000
Si       0.57146949      -1.34117199      -3.57209742       0.00000000
