10
Lattice="16.28999089631971 0.0 0.0 0.0 16.28999089631971 0.0 0.0 0.0 34.56409401068381" Properties=species:S:1:pos:R:3:initial_magmoms:R:1 pbc="T T T"
Si      -1.96174673      -0.14167413       1.20601104       0.00000000
Si      -0.80295202       1.13674131      -1.94979620       0.00000000
Si       0.05911967      -2.31357096      -0.71779294       0.00000000
Si       2.47713885       1.49842655      -0.93354214       0.00000000
Si       0.80488890       2.82914036      -1.84015883       0.00000000
Si       0.97204059      -1.88950968      -2.85012222       0.00000000
Si      -1.23672770       1.09665976       3.16745535       0.00000000
Si       2.17899927       2.33560874       1.72457643       0.00000000
Si       2.81541699      -0.45776529      -2.34227170       0.00000000
Si      -0.60637570      -0.41260941      -3.72822352       0.00000000
