10
Lattice="16.28999089631971 0.0 0.0 0.0 16.28999089631971 0.0 0.0 0.0 34.56409401068381" Properties=species:S:1:pos:R:3:initial_magmoms:R:1 pbc="T T T"
Si      -1.09545363       0.46514466       2.02469663       0.00000000
Si      -1.75493799      -0.93235815      -1.29677640       0.00000000
Si       1.03078233       1.74057021      -1.33337980       0.00000000
Si       1.81672596      -1.72061496       0.11292096       0.00000000
Si      -1.25094168       2.70860346       1.37630843       0.00000000
Si      -0.37657593      -2.29036423      -2.68691048       0.00000000
Si       1.20345633      -2.04982934       2.64239190       0.00000000
Si       2.35678833       0.45476793      -2.73015018       0.00000000
Si       0.41251167      -0.08465913       3.67748340       0.00000000
Si      -3.14866152      -2.38286047       0.15260056       0.00000000
