10
Lattice="16.28999089631971 0.0 0.0 0.0 16.28999089631971 0.0 0.0 0.0 34.56409401068381" Properties=species:S:1:pos:R:3:initial_magmoms:R:1 pbc="T T T"
Si      -0.80718579       1.71204642       1.41457090       0.00000000
Si       1.35819504       0.86107311      -1.74413972       0.00000000
Si       1.76523327      -1.18577516       1.10812547       0.00000000
Si      -1.76231736      -0.24288390      -1.64884646       0.00000000
Si       0.19453518       3.48131961       0.22705166       0.00000000
Si       2.44032345      -2.44742589      -0.69715817       0.00000000
Si      -2.88476352       1.98156447      -0.91145567       0.00000000
Si      -0.14977026       1.41087690      -3.39692649       0.00000000
Si       2.14913970      -1.10409710      -2.77923122       0.00000000
Si       0.65430414      -2.59682946       2.56247967       0.00000000
