10
Lattice="16.28999089631971 0.0 0.0 0.0 16.28999089631971 0.0 0.0 0.0 34.56409401068381" Properties=species:S:1:pos:R:3:initial_magmoms:R:1 pbc="T T T"
Si       1.35808101       0.96078583       1.76428511       0.00000000
Si       1.98477360       0.54389052      -1.32359816       0.00000000
Si      -1.09705005      -1.52272308       1.63808116       0.00000000
Si      -1.98490392       1.17268289      -1.24472285       0.00000000
Si       3.34989189       1.54053715       0.47002497       0.00000000
Si      -2.73867480      -2.76643200       0.52398647       0.00000000
Si       0.12489543       2.46331678       3.09409098       0.00000000
Si      -2.57210955      -0.25917550       3.07822260       0.00000000
Si       1.87579350       2.52585410      -2.58688193       0.00000000
Si       3.05378856      -1.24085721      -2.45529635       0.00000000
