10
Lattice="16.28999089631971 0.0 0.0 0.0 16.28999089631971 0.0 0.0 0.0 34.56409401068381" Properties=species:S:1:pos:R:3:initial_magmoms:R:1 pbc="T T T"
Si      -1.28632356      -1.32478425      -1.52002052       0.00000000
Si       1.19097819      -1.43785314       1.55213262       0.00000000
Si       1.90586484       0.71322507      -1.41339023       0.00000000
Si      -1.49628537       1.27404090       1.56029320       0.00000000
Si       2.57608431       2.47293603       0.12229475       0.00000000
Si       0.62328798      -1.90066833      -2.98782016       0.00000000
Si       2.47085091      -2.93884632       0.10150789       0.00000000
Si      -2.98748826       2.48334534       0.19976329       0.00000000
Si       2.55865401      -0.06911847       2.93810863       0.00000000
Si      -2.81035080      -2.71844262       0.08898531       0.00000000
