10
Lattice="16.28999089631971 0.0 0.0 0.0 16.28999089631971 0.0 0.0 0.0 34.56409401068381" Properties=species:S:1:pos:R:3:initial_magmoms:R:1 pbc="T T T"
Si       0.89078607       0.72252666       2.08881306       0.00000000
Si      -1.19260719       1.27189062      -1.62769322       0.00000000
Si       1.37261169      -1.24155864      -1.51843606       0.00000000
Si      -2.03375763      -1.10003112       0.66238667       0.00000000
Si      -1.06315056       0.60378885       3.50407524       0.00000000
Si       2.37214980      -1.07240328       2.69091991       0.00000000
Si      -3.77072775       0.48935160       0.50767770       0.00000000
Si      -2.90038563       2.58304014      -0.36447858       0.00000000
Si       2.30835816      -3.19702653      -0.56505412       0.00000000
Si       2.73712725       0.05287734      -2.96352708       0.00000000
