10
Lattice="16.28999089631971 0.0 0.0 0.0 16.28999089631971 0.0 0.0 0.0 34.56409401068381" Properties=species:S:1:pos:R:3:initial_magmoms:R:1 pbc="T T T"
Si      -1.35829278      -1.35690813      -1.35691796       0.00000000
Si       1.35747828      -1.35736425       1.35788576       0.00000000
Si      -1.35759231       1.35797006       1.35760924       0.00000000
Si       1.35755973       1.35737571      -1.35864617       0.00000000
Si      -0.00009774       2.71362308       2.71470002       0.00000000
Si       0.00071676      -2.71393029       2.71442351       0.00000000
Si      -2.71356539       0.00223173       2.71566782       0.00000000
Si      -2.71538010      -2.71453302      -0.00010369       0.00000000
Si      -0.00096111      -2.71116099      -2.71877859       0.00000000
Si       2.71437012       0.00001629       2.71559869       0.00000000
