10
Lattice="16.28999089631971 0.0 0.0 0.0 16.28999089631971 0.0 0.0 0.0 34.56409401068381" Properties=species:S:1:pos:R:3:initial_magmoms:R:1 pbc="T T T"
Si       0.90964989       1.24126542      -1.78475256       0.00000000
Si      -1.32253623       1.64002086       1.33389826       0.00000000
Si       1.75396059      -1.25937990       1.30749128       0.00000000
Si      -1.54267929      -1.23175206      -1.75074147       0.00000000
Si       1.18029195       2.91997991       2.00385447       0.00000000
Si       1.79356158       3.24919430      -0.52561647       0.00000000
Si       2.57109957      -2.73740418      -0.40948105       0.00000000
Si      -0.41272344       0.25715394       3.75501071       0.00000000
Si      -2.83454145      -2.75742459      -0.45095799       0.00000000
Si       2.31234921      -0.00599472      -3.33287919       0.00000000
