10
Lattice="16.28999089631971 0.0 0.0 0.0 16.28999089631971 0.0 0.0 0.0 34.56409401068381" Properties=species:S:1:pos:R:3:initial_magmoms:R:1 pbc="T T T"
Si      -1.35597960       1.35897696       1.36089283       0.00000000
Si       1.35861858      -1.35700587       1.36099653       0.00000000
Si      -1.35321030      -1.35874890      -1.36866285       0.00000000
Si       1.35809730       1.36625859      -1.38151724       0.00000000
Si      -2.71467963      -2.70985616      -0.00114062       0.00000000
Si      -2.71024875       2.71564074       0.00214298       0.00000000
Si      -2.71334385       0.00110772       2.71711951       0.00000000
Si       0.00201996      -2.71406550       2.71753428       0.00000000
Si       2.71863810      -2.71414043       0.00141713       0.00000000
Si       2.71368594       2.71974582      -0.00010369       0.00000000
