10
Lattice="16.28999089631971 0.0 0.0 0.0 16.28999089631971 0.0 0.0 0.0 34.56409401068381" Properties=species:S:1:pos:R:3:initial_magmoms:R:1 pbc="T T T"
Si      -1.35694071       1.35723025      -1.35750555       0.00000000
Si       1.35858600       1.35646136       1.35677970       0.00000000
Si       1.35785295      -1.35823848      -1.35729817       0.00000000
Si      -1.35791811      -1.35783123       1.35798945       0.00000000
Si      -0.00120546      -2.71429953      -2.71414700       0.00000000
Si       0.00451233       2.71040797       2.71832926       0.00000000
Si       2.71349046       0.00445859       2.71539131       0.00000000
Si      -0.00001629       2.71433386      -2.71476915       0.00000000
Si      -2.71495656       2.71428499       0.00010369       0.00000000
Si       2.71508688       2.71492030      -0.00017282       0.00000000
