10
Lattice="16.28999089631971 0.0 0.0 0.0 16.28999089631971 0.0 0.0 0.0 34.56409401068381" Properties=species:S:1:pos:R:3:initial_magmoms:R:1 pbc="T T T"
Si       1.92904551      -1.16363153       0.72007417       0.00000000
Si       0.46025766       0.96638926      -2.11221297       0.00000000
Si      -0.48000114       1.27997176       1.95131702       0.00000000
Si      -1.99130589      -1.31716478      -0.09899162       0.00000000
Si       3.15235935       0.84165185       1.12596056       0.00000000
Si      -0.86599269      -3.32068817      -0.39752187       0.00000000
Si      -2.88134262      -0.45855146      -2.10174004       0.00000000
Si       0.98416035      -2.36394389       2.54979464       0.00000000
Si      -1.57757247       1.20117540      -3.17519771       0.00000000
Si      -0.47226339      -0.55492310       3.68985735       0.00000000
