10
Lattice="16.28999089631971 0.0 0.0 0.0 16.28999089631971 0.0 0.0 0.0 34.56409401068381" Properties=species:S:1:pos:R:3:initial_magmoms:R:1 pbc="T T T"
Si      -2.15239770       0.90808768      -0.25086633       0.00000000
Si       0.48000114      -1.27997176      -1.95131702       0.00000000
Si       1.26517914       1.88330482       0.81429595       0.00000000
Si       0.00773775      -1.83489487       1.73854034       0.00000000
Si      -1.51130475      -2.59713655      -2.05030864       0.00000000
Si       2.40904665      -2.44360330      -1.23124284       0.00000000
Si       3.38463846       0.83730763       1.13487810       0.00000000
Si       3.63236049      -0.43831992      -0.82535646       0.00000000
Si      -2.42194833      -2.38062616       1.70290474       0.00000000
Si      -2.15405928       2.54845810      -1.92290532       0.00000000
