10
Lattice="16.28999089631971 0.0 0.0 0.0 16.28999089631971 0.0 0.0 0.0 34.56409401068381" Properties=species:S:1:pos:R:3:initial_magmoms:R:1 pbc="T T T"
Si       2.11945932      -1.04599719       0.32058215       0.00000000
Si      -1.26517914      -1.88330482      -0.81429595       0.00000000
Si      -0.09412362       1.91826153      -1.46748856       0.00000000
Si       0.03069036       1.02343554       2.22547956       0.00000000
Si       2.36718135      -2.32162474      -1.63965241       0.00000000
Si      -3.41757684      -0.97521714      -1.06516228       0.00000000
Si       3.70553517       0.77555061       0.50491257       0.00000000
Si       1.38087072      -0.43168500       3.63434739       0.00000000
Si      -1.16985006       1.42495146      -3.53217587       0.00000000
Si       2.27295999      -2.28954321       2.35588996       0.00000000
