10
Lattice="16.28999089631971 0.0 0.0 0.0 16.28999089631971 0.0 0.0 0.0 34.56409401068381" Properties=species:S:1:pos:R:3:initial_magmoms:R:1 pbc="T T T"
Si      -1.35754344       1.35674523      -1.35743642       0.00000000
Si      -1.35782037      -1.35674523       1.35802401       0.00000000
Si       1.35736425      -1.35782037      -1.35743642       0.00000000
Si       1.35985662       1.35751086       1.35688340       0.00000000
Si       2.71161711       0.00006516       2.71276443       0.00000000
Si      -0.00257382       2.71235016      -2.71435438       0.00000000
Si       2.71472850       0.00004887      -2.71366310       0.00000000
Si       2.71456560       2.71441899      -0.00024195       0.00000000
Si       2.71446786      -2.71536381      -0.00003456       0.00000000
Si      -2.71529865       2.71467963       0.00044933       0.00000000
