10
Lattice="16.28999089631971 0.0 0.0 0.0 16.28999089631971 0.0 0.0 0.0 34.56409401068381" Properties=species:S:1:pos:R:3:initial_magmoms:R:1 pbc="T T T"
Si       1.32600600      -1.28580228      -1.39677038       0.00000000
Si      -1.39929471       1.42221474      -1.36203345       0.00000000
Si      -1.03078233      -1.74057021       1.33337980       0.00000000
Si       1.41905448       1.39595526       1.39977746       0.00000000
Si      -0.34119405       2.35326969       2.58359834       0.00000000
Si      -2.28172401       0.96803325       2.70968823       0.00000000
Si       2.71453302      -2.50517394       0.04061283       0.00000000
Si      -0.04219110      -2.65595418      -2.73578413       0.00000000
Si       2.66553270       0.06398712      -2.74148721       0.00000000
Si       0.78594363      -3.46118517       1.44630076       0.00000000
