10
Lattice="16.28999089631971 0.0 0.0 0.0 16.28999089631971 0.0 0.0 0.0 34.56409401068381" Properties=species:S:1:pos:R:3:initial_magmoms:R:1 pbc="T T T"
Si       0.49994010       2.24168319       0.26078624       0.00000000
Si      -0.06354729      -0.95215050       2.17121391       0.00000000
Si       1.94944059      -0.69924825      -1.22591997       0.00000000
Si      -2.15215335       0.33339114      -1.13017738       0.00000000
Si       0.27422586       2.79637398      -2.03230074       0.00000000
Si       1.70399916      -3.01653333      -1.50582016       0.00000000
Si      -0.65060631      -3.19862295       1.90365311       0.00000000
Si       1.34141634      -0.76633047      -3.57296152       0.00000000
Si      -0.86271840       3.30524100       1.92428788       0.00000000
Si      -2.10083985       2.39368518      -2.29484974       0.00000000
