10
Lattice="16.28999089631971 0.0 0.0 0.0 16.28999089631971 0.0 0.0 0.0 34.56409401068381" Properties=species:S:1:pos:R:3:initial_magmoms:R:1 pbc="T T T"
Si      -1.39022118       1.74327435       0.80472169       0.00000000
Si      -1.07572644      -0.49331007      -2.06468731       0.00000000
Si       0.09412362      -1.91826153       1.46748856       0.00000000
Si       1.84422348       1.42542387      -0.68547550       0.00000000
Si      -0.97425603       1.72564857      -2.97586647       0.00000000
Si      -1.30676751       3.17954736      -1.10508383       0.00000000
Si       0.56433447      -1.95222618      -3.10423758       0.00000000
Si      -3.32511480      -1.25310825      -1.26971270       0.00000000
Si       0.12481398      -0.89482599       3.69296812       0.00000000
Si      -0.06356358       2.97983196       2.43238035       0.00000000
