10
Lattice="16.28999089631971 0.0 0.0 0.0 16.28999089631971 0.0 0.0 0.0 34.56409401068381" Properties=species:S:1:pos:R:3:initial_magmoms:R:1 pbc="T T T"
Si      -1.08466965       2.05227936       0.44065788       0.00000000
Si       2.27370933       0.57583521      -0.53729914       0.00000000
Si      -1.26420174      -0.83570958      -1.87313299       0.00000000
Si      -0.70933176      -1.41354846       2.00575550       0.00000000
Si       0.33881571      -2.42054739      -2.61173353       0.00000000
Si       0.57324510       1.20034494       3.58018542       0.00000000
Si      -1.10706840      -3.58292034       0.88249094       0.00000000
Si       2.35716300       2.01210822      -2.44710466       0.00000000
Si      -0.60413094       3.84064443      -1.03637037       0.00000000
Si       3.66393051      -1.16743914      -1.34202083       0.00000000
