10
Lattice="16.28999089631971 0.0 0.0 0.0 16.28999089631971 0.0 0.0 0.0 34.56409401068381" Properties=species:S:1:pos:R:3:initial_magmoms:R:1 pbc="T T T"
Si       1.35557235      -1.35628911       1.35999417       0.00000000
Si      -1.34768799      -1.35293337      -1.37203976       0.00000000
Si      -1.35637056       1.36037790       1.35902637       0.00000000
Si       1.37832948       1.34555400      -1.37608722       0.00000000
Si      -0.11287341       2.55485844      -2.73661713       0.00000000
Si       2.71598283      -2.70980892       0.00120974       0.00000000
Si      -2.71333896      -2.71450044      -0.00003456       0.00000000
Si      -0.00032580      -2.71248048       2.71701582       0.00000000
Si      -2.71473664       0.00228060       2.71701582       0.00000000
Si       2.71526607       0.00242721       2.71670474       0.00000000
