10
Lattice="16.28999089631971 0.0 0.0 0.0 16.28999089631971 0.0 0.0 0.0 34.56409401068381" Properties=species:S:1:pos:R:3:initial_magmoms:R:1 pbc="T T T"
Si       1.37235105       1.88058276       0.40654310       0.00000000
Si      -2.04281487       0.93651210      -0.83164713       0.00000000
Si       1.36265850      -1.06355781      -1.66350165       0.00000000
Si      -0.46299438      -1.19340540       2.04837305       0.00000000
Si       1.27392687       2.94591618      -1.73041777       0.00000000
Si       3.55317480      -0.41337504      -1.07646475       0.00000000
Si      -2.58261660       2.83652883       0.41974659       0.00000000
Si       3.65190849       1.22401431       0.63622163       0.00000000
Si       0.86271840      -3.30524100      -1.92428788       0.00000000
Si      -2.08992555      -0.01119123       3.31981396       0.00000000
