10
Lattice="16.28999089631971 0.0 0.0 0.0 16.28999089631971 0.0 0.0 0.0 34.56409401068381" Properties=species:S:1:pos:R:3:initial_magmoms:R:1 pbc="T T T"
Si      -0.77774976       0.97985979      -1.97423303       0.00000000
Si      -1.85547987      -0.69168969       1.30234123       0.00000000
Si       1.07240328       1.93660407       0.97308348       0.00000000
Si       1.04088213      -2.01922695      -0.86462129       0.00000000
Si       2.04069717      -1.20361923      -2.80757380       0.00000000
Si       2.01728844       3.13691643      -0.85663698       0.00000000
Si      -2.22242841      -0.48081564      -3.08152896       0.00000000
Si      -0.94185522      -2.36555235       2.87746243       0.00000000
Si       0.80423730       0.62696952      -3.71626434       0.00000000
Si      -1.90306296       2.98338318      -1.67570278       0.00000000
