10
Lattice="16.28999089631971 0.0 0.0 0.0 16.28999089631971 0.0 0.0 0.0 34.56409401068381" Properties=species:S:1:pos:R:3:initial_magmoms:R:1 pbc="T T T"
Si      -1.35597308      -1.35573833       1.35805858       0.00000000
Si       1.35749457       1.35565302       1.35709078       0.00000000
Si      -1.35714922       1.35745144      -1.35733273       0.00000000
Si       1.35759231      -1.35797006      -1.35760924       0.00000000
Si      -2.71289746      -0.00100077       2.71404331       0.00000000
Si       0.00004887       2.71430907      -2.71345572       0.00000000
Si      -2.71471010       2.71421133       0.00000000       0.00000000
Si       2.71492398       2.71416246       0.00010369       0.00000000
Si      -2.71444247      -0.00037006      -2.71487285       0.00000000
Si      -0.00070047      -2.71487819      -2.71452720       0.00000000
