10
Lattice="16.28999089631971 0.0 0.0 0.0 16.28999089631971 0.0 0.0 0.0 34.56409401068381" Properties=species:S:1:pos:R:3:initial_magmoms:R:1 pbc="T T T"
Si       1.35695700      -1.35975888       1.36524791       0.00000000
Si      -1.35944937       1.35863487       1.36590463       0.00000000
Si       1.36985868       1.34601012      -1.36895664       0.00000000
Si      -1.35672894      -1.37748240      -1.37812650       0.00000000
Si      -2.70923877       2.71083519       0.00815713       0.00000000
Si      -2.71166598      -2.71629234       0.00746585       0.00000000
Si       2.71608057       2.71257822       0.00525375       0.00000000
Si       2.71477737      -2.71402803       0.00794975       0.00000000
Si       0.02140506       2.64723903      -2.78755772       0.00000000
Si       2.71461447       0.00001629       2.72251151       0.00000000
