10
Lattice="16.28999089631971 0.0 0.0 0.0 16.28999089631971 0.0 0.0 0.0 34.56409401068381" Properties=species:S:1:pos:R:3:initial_magmoms:R:1 pbc="T T T"
Si      -1.35656604      -1.35658233       1.35698709       0.00000000
Si       1.35646830       1.35689184       1.35767837       0.00000000
Si      -1.35739683       1.35755973      -1.35712535       0.00000000
Si       1.35760860      -1.35711990      -1.35736729       0.00000000
Si      -2.71482624      -2.71423980      -0.00006913       0.00000000
Si      -0.00162900      -2.71407690       2.71521849       0.00000000
Si       2.71498914      -2.71440270       0.00024195       0.00000000
Si       2.71598283       0.00039096      -2.71407787       0.00000000
Si      -2.71645524       0.00149868      -2.71397418       0.00000000
Si      -0.00084708       2.71447435      -2.71635910       0.00000000
