10
Lattice="16.28999089631971 0.0 0.0 0.0 16.28999089631971 0.0 0.0 0.0 34.56409401068381" Properties=species:S:1:pos:R:3:initial_magmoms:R:1 pbc="T T T"
Si       0.81713898      -1.47802428      -1.71697233       0.00000000
Si      -0.85445937      -0.42728670       2.31862985       0.00000000
Si      -1.75396059       1.25937990      -1.30749128       0.00000000
Si       2.08179684       1.06671807       1.12381758       0.00000000
Si       2.32450155      -2.58142743      -0.28850665       0.00000000
Si      -2.16668403       1.51653384       2.44751943       0.00000000
Si      -2.50510878      -2.04740865       1.95805702       0.00000000
Si       1.97249094      -0.05999607      -3.26997251       0.00000000
Si      -0.28248489       2.83603103       2.77843625       0.00000000
Si      -0.84431070       2.50064532      -3.09224383       0.00000000
