10
Lattice="16.28999089631971 0.0 0.0 0.0 16.28999089631971 0.0 0.0 0.0 34.56409401068381" Properties=species:S:1:pos:R:3:initial_magmoms:R:1 pbc="T T T"
Si       0.42722154      -0.56697345      -2.22807187       0.00000000
Si       1.05305076       1.89619414       0.89659310       0.00000000
Si      -1.93706019       1.20233951      -0.57345320       0.00000000
Si      -0.96443316      -2.02326687       0.81025194       0.00000000
Si       2.56782528      -1.13010246       1.83846519       0.00000000
Si      -2.50903467      -2.06097822      -1.03325960       0.00000000
Si       2.74582611      -1.57219677      -1.66823693       0.00000000
Si       1.76741613       3.11178815      -1.05589910       0.00000000
Si      -2.61215037       2.46399023       1.23183043       0.00000000
Si      -0.58718934       2.92969853       2.35357417       0.00000000
