10
Lattice="16.28999089631971 0.0 0.0 0.0 16.28999089631971 0.0 0.0 0.0 34.56409401068381" Properties=species:S:1:pos:R:3:initial_magmoms:R:1 pbc="T T T"
Si       1.35676967      -1.35710361       1.35754012       0.00000000
Si      -1.35756886       1.35738054       1.35754012       0.00000000
Si      -1.35729414      -1.35734796      -1.35854247       0.00000000
Si       1.35836608       1.35809730      -1.35798945       0.00000000
Si       2.71441084      -2.71476108       0.00000000       0.00000000
Si      -0.00184892      -2.71433754       2.71483828       0.00000000
Si      -2.71506963      -0.00026064       2.71421613       0.00000000
Si       2.71537195       0.00083079       2.71459633       0.00000000
Si      -2.71516737      -2.71495656       0.00006913       0.00000000
Si       2.71447600       2.71565703      -0.00013826       0.00000000
