10
Lattice="16.28999089631971 0.0 0.0 0.0 16.28999089631971 0.0 0.0 0.0 34.56409401068381" Properties=species:S:1:pos:R:3:initial_magmoms:R:1 pbc="T T T"
Si      -1.35580041       1.34543997       1.34661786       0.00000000
Si       1.35078309       1.35949824      -1.36065089       0.00000000
Si      -1.36120869      -1.35755973      -1.36110022       0.00000000
Si       1.32760242      -1.37740095       1.41235880       0.00000000
Si      -2.65282813      -0.03833037       2.76260589       0.00000000
Si       2.70941796       0.00270414      -2.72047223       0.00000000
Si      -2.71955360       2.71117728      -0.01088770       0.00000000
Si       2.71402803       2.71774215       0.01372195       0.00000000
Si      -0.00576666      -2.71505919      -2.72126721       0.00000000
Si      -0.00493587       2.71687878      -2.72102526       0.00000000
