10
Lattice="16.28999089631971 0.0 0.0 0.0 16.28999089631971 0.0 0.0 0.0 34.56409401068381" Properties=species:S:1:pos:R:3:initial_magmoms:R:1 pbc="T T T"
Si       2.21503831      -0.72763358       0.06446207       0.00000000
Si      -0.24772203       1.27562755       1.96023456       0.00000000
Si      -1.22331384      -2.00528338      -0.40588638       0.00000000
Si       0.12867471       1.43093641      -1.91281260       0.00000000
Si      -3.15235935      -0.84165185      -1.12596056       0.00000000
Si      -2.36718135       2.32162474       1.63965241       0.00000000
Si       0.30151161      -3.21551635      -1.80718467       0.00000000
Si       2.41161462      -2.27698429      -1.71396525       0.00000000
Si      -3.63236049       0.43831992       0.82535646       0.00000000
Si       1.89732729       2.94222487      -1.77766691       0.00000000
