10
Lattice="16.28999089631971 0.0 0.0 0.0 16.28999089631971 0.0 0.0 0.0 34.56409401068381" Properties=species:S:1:pos:R:3:initial_magmoms:R:1 pbc="T T T"
Si       1.35731538       1.35676152      -1.35809314       0.00000000
Si      -1.36089918       1.35734796       1.35470586       0.00000000
Si      -1.35804843      -1.35808101      -1.35809314       0.00000000
Si       1.35918873      -1.35894438       1.35719447       0.00000000
Si      -2.70042588       0.00755856       2.69942269       0.00000000
Si       2.72095128      -0.00443088       2.69741797       0.00000000
Si      -2.71265967       2.71479366      -0.00117518       0.00000000
Si       2.71485882       2.71362078      -0.00096780       0.00000000
Si      -0.00078192       2.71448415      -2.71508023       0.00000000
Si       2.71476108      -0.00107514      -2.71511479       0.00000000
