10
Lattice="16.28999089631971 0.0 0.0 0.0 16.28999089631971 0.0 0.0 0.0 34.56409401068381" Properties=species:S:1:pos:R:3:initial_magmoms:R:1 pbc="T T T"
Si       1.53655425      -1.62334737       0.68606309       0.00000000
Si      -2.19051630      -0.65018277      -0.58703690       0.00000000
Si       1.48703265       0.87410511      -1.62427138       0.00000000
Si       0.09873369       1.63738935       1.71268638       0.00000000
Si       3.20387226      -0.36183348      -0.54583648       0.00000000
Si      -2.18082375       2.29395780       1.48300785       0.00000000
Si      -3.55317480       0.41337504       1.07646475       0.00000000
Si      -2.41623054      -0.09549198      -2.88012387       0.00000000
Si       0.81871911      -2.20450941       2.94323794       0.00000000
Si       1.83286935       3.14592480      -1.16246026       0.00000000
