10
Lattice="16.28999089631971 0.0 0.0 0.0 16.28999089631971 0.0 0.0 0.0 34.56409401068381" Properties=species:S:1:pos:R:3:initial_magmoms:R:1 pbc="T T T"
Si      -1.53655425       1.62334737      -0.68606309       0.00000000
Si      -0.32612580      -1.95905169      -1.33970503       0.00000000
Si       1.66731801       1.26151389      -1.23189956       0.00000000
Si      -0.71783514      -0.58116204       2.25717486       0.00000000
Si      -0.04952160       2.49745248      -2.31033446       0.00000000
Si      -0.65252853      -3.49330905       0.42254629       0.00000000
Si       1.23729066      -1.49902209       3.10945676       0.00000000
Si      -2.18300661      -2.34932751       1.81091759       0.00000000
Si      -1.43782056       3.26073672       1.02662329       0.00000000
Si      -3.72707055       0.97316460      -1.27309999       0.00000000
