10
Lattice="16.28999089631971 0.0 0.0 0.0 16.28999089631971 0.0 0.0 0.0 34.56409401068381" Properties=species:S:1:pos:R:3:initial_magmoms:R:1 pbc="T T T"
Si       0.74240046       2.00883393      -0.91612735       0.00000000
Si      -1.27286802       1.40566410       1.48275898       0.00000000
Si       1.43133390      -1.31264820       1.46848746       0.00000000
Si      -1.85727177      -0.97627599      -1.35953589       0.00000000
Si      -2.63559168       2.67680538       0.00524683       0.00000000
Si      -3.51455121       0.77173875      -1.19403776       0.00000000
Si      -2.77431732      -2.71401174       0.05442811       0.00000000
Si      -2.63503782       0.05102028       2.85564211       0.00000000
Si       2.74368465       2.75794587       0.10364395       0.00000000
Si       2.69881547      -2.80398141       0.05461476       0.00000000
