10
Lattice="16.28999089631971 0.0 0.0 0.0 16.28999089631971 0.0 0.0 0.0 34.56409401068381" Properties=species:S:1:pos:R:3:initial_magmoms:R:1 pbc="T T T"
Si       1.35689184      -1.35679410      -1.35760924       0.00000000
Si      -1.35738054       1.35728280      -1.35760924       0.00000000
Si      -1.35814617      -1.35808101       1.35747099       0.00000000
Si       1.35801585       1.35839052       1.35778206       0.00000000
Si       2.71364505       0.00030951      -2.71473459       0.00000000
Si      -0.00096111      -2.71524978      -2.71362854       0.00000000
Si       0.00099369       2.71479366      -2.71431982       0.00000000
Si       0.00272043      -2.71546155       2.71369767       0.00000000
Si      -2.71498914       2.71440270      -0.00024195       0.00000000
Si      -2.71503801      -0.00249237      -2.71487285       0.00000000
