10
Lattice="16.28999089631971 0.0 0.0 0.0 16.28999089631971 0.0 0.0 0.0 34.56409401068381" Properties=species:S:1:pos:R:3:initial_magmoms:R:1 pbc="T T T"
Si      -1.38041460      -1.25462322      -1.44920414       0.00000000
Si       1.27044081       1.33835382      -1.51003698       0.00000000
Si       1.15546599      -1.80012645       1.12582230       0.00000000
Si      -0.98310150       1.64318859       1.52707709       0.00000000
Si      -0.91728990      -2.87127540       1.65136964       0.00000000
Si       2.53089585       2.50611876       0.07749274       0.00000000
Si      -2.49046407       2.74659174       0.09861142       0.00000000
Si       0.73443465       3.40513128       1.33935939       0.00000000
Si      -2.63489121      -2.69966025      -0.06404730       0.00000000
Si      -0.03784167      -2.67307497      -2.83449924       0.00000000
