10
Lattice="16.28999089631971 0.0 0.0 0.0 16.28999089631971 0.0 0.0 0.0 34.56409401068381" Properties=species:S:1:pos:R:3:initial_magmoms:R:1 pbc="T T T"
Si       1.40471928      -1.29878541      -1.34585744       0.00000000
Si       1.26045504       1.16776494       1.58752973       0.00000000
Si      -1.30170132       1.42434873      -1.33680165       0.00000000
Si      -1.27044081      -1.33835382       1.51003698       0.00000000
Si      -0.53600616       2.06677746       2.84939637       0.00000000
Si      -2.65085541      -2.59297704       0.06083284       0.00000000
Si       0.06186942      -2.65600305      -2.69413438       0.00000000
Si      -2.65746915       0.05978430      -2.69285551       0.00000000
Si       2.55976173      -0.42865506       2.76744486       0.00000000
Si      -2.25354231       0.30483477       3.03711407       0.00000000
