10
Lattice="16.28999089631971 0.0 0.0 0.0 16.28999089631971 0.0 0.0 0.0 34.56409401068381" Properties=species:S:1:pos:R:3:initial_magmoms:R:1 pbc="T T T"
Si      -0.34583670      -2.27181969      -0.46181112       0.00000000
Si       0.16110810      -0.08926920       2.36632833       0.00000000
Si      -2.03284539       1.23626439       0.10414167       0.00000000
Si       1.69532215       1.07245215      -1.32999252       0.00000000
Si      -1.84091661       2.55168189      -1.80352087       0.00000000
Si      -1.73413566      -1.50853545       2.87514664       0.00000000
Si      -0.30265191       2.11278042       3.04554772       0.00000000
Si       1.37100291      -3.50775828       0.61662378       0.00000000
Si      -1.83286935      -3.14592480       1.16246026       0.00000000
Si      -0.08356770      -2.68403814      -2.78068292       0.00000000
