10
Lattice="16.28999089631971 0.0 0.0 0.0 16.28999089631971 0.0 0.0 0.0 34.56409401068381" Properties=species:S:1:pos:R:3:initial_magmoms:R:1 pbc="T T T"
Si       0.34583670       2.27181969       0.46181112       0.00000000
Si      -1.48703265      -0.87410511       1.62427138       0.00000000
Si       0.26226900      -0.41221845      -2.31887180       0.00000000
Si       1.71683961      -1.23593859       1.07843490       0.00000000
Si       0.04952160      -2.49745248       2.31033446       0.00000000
Si       0.50694480       2.18255049       2.82813944       0.00000000
Si      -1.38829896       0.76328424       3.33695776       0.00000000
Si       2.92401820      -2.29975704      -0.64123343       0.00000000
Si      -1.68700869       3.50808408       0.56595279       0.00000000
Si       2.08036399      -1.97402220      -2.73322639       0.00000000
