10
Lattice="16.28999089631971 0.0 0.0 0.0 16.28999089631971 0.0 0.0 0.0 34.56409401068381" Properties=species:S:1:pos:R:3:initial_magmoms:R:1 pbc="T T T"
Si      -1.69468128      -0.85051719      -1.39625192       0.00000000
Si      -0.26226900       0.41221845       2.31887180       0.00000000
Si       1.81809499      -1.56180375      -0.41435459       0.00000000
Si       0.98005527       1.85930802      -1.26466634       0.00000000
Si      -0.10065591      -1.94096979      -2.70280997       0.00000000
Si       2.66174920      -1.88753859       1.67763837       0.00000000
Si       1.45457061      -0.82372014       3.39730670       0.00000000
Si       0.94411953      -3.52781127      -1.25512665       0.00000000
Si       0.08356770       2.68403814       2.78068292       0.00000000
Si      -2.85014727       0.94960926      -2.52207422       0.00000000
