10
Lattice="16.28999089631971 0.0 0.0 0.0 16.28999089631971 0.0 0.0 0.0 34.56409401068381" Properties=species:S:1:pos:R:3:initial_magmoms:R:1 pbc="T T T"
Si       1.35690813      -1.35505107       1.36054719       0.00000000
Si       1.36190916       1.35042492      -1.36443911       0.00000000
Si      -1.35992178       1.35903232       1.35826596       0.00000000
Si      -1.34622189      -1.36656810      -1.37421039       0.00000000
Si       2.71099809      -2.70998811       0.00501180       0.00000000
Si      -2.71608057      -2.71257822      -0.00525375       0.00000000
Si      -0.00146610      -2.71256193       2.71725777       0.00000000
Si       2.71378368       0.00249237       2.71736146       0.00000000
Si       2.71564074       2.71757178       0.00152082       0.00000000
Si      -2.71647153       0.00211770       2.71749972       0.00000000
