10
Lattice="16.28999089631971 0.0 0.0 0.0 16.28999089631971 0.0 0.0 0.0 34.56409401068381" Properties=species:S:1:pos:R:3:initial_magmoms:R:1 pbc="T T T"
Si      -1.36102950      -1.35003375       1.35460217       0.00000000
Si       1.35783666      -1.35653346      -1.35864617       0.00000000
Si      -1.35870003       1.35637056      -1.35899181       0.00000000
Si       1.36663326       1.35202113       1.37523694       0.00000000
Si      -2.66488110       0.05188365       2.74705203       0.00000000
Si       2.71679479       2.71439870      -0.00245405       0.00000000
Si      -0.00017919      -2.71492398      -2.71642823       0.00000000
Si      -2.71679733      -2.71459818      -0.00145169       0.00000000
Si       2.71519881      -0.00014661      -2.71635910       0.00000000
Si      -2.71516833      -0.00052128      -2.71667018       0.00000000
