10
Lattice="16.28999089631971 0.0 0.0 0.0 16.28999089631971 0.0 0.0 0.0 34.56409401068381" Properties=species:S:1:pos:R:3:initial_magmoms:R:1 pbc="T T T"
Si       0.59004009       1.23779565       1.90935618       0.00000000
Si       1.90547388      -1.31593878      -0.46412691       0.00000000
Si      -1.91788197      -1.39105197       0.22490869       0.00000000
Si       0.12295692       1.80074547      -1.62758953       0.00000000
Si      -0.96953193       0.01337409      -2.95274307       0.00000000
Si      -0.05496246      -3.35425761       0.40491859       0.00000000
Si      -2.76153619      -1.06531713      -1.86708427       0.00000000
Si      -1.41328782       0.73231695       3.13264928       0.00000000
Si      -3.12506057      -0.32723352       1.94457702       0.00000000
Si       2.44511271       0.01803303       2.89481362       0.00000000
