10
Lattice="16.28999089631971 0.0 0.0 0.0 16.28999089631971 0.0 0.0 0.0 34.56409401068381" Properties=species:S:1:pos:R:3:initial_magmoms:R:1 pbc="T T T"
Si      -1.98267938      -1.25978715      -0.09677952       0.00000000
Si       1.10284929       0.02894733      -2.08307542       0.00000000
Si      -0.26998069       1.94012271       1.36372709       0.00000000
Si       1.55124783      -1.43084844       1.16290959       0.00000000
Si       0.38937987       0.35041419       3.00493488       0.00000000
Si      -1.47461216      -2.75229324      -1.88979290       0.00000000
Si       2.28074661      -2.03903559      -2.28368553       0.00000000
Si       2.85265593       1.65094263      -2.00966124       0.00000000
Si      -2.03358563      -2.59734276       2.03243899       0.00000000
Si       0.28759995      -3.30362829       2.01947745       0.00000000
