10
Lattice="16.28999089631971 0.0 0.0 0.0 16.28999089631971 0.0 0.0 0.0 34.56409401068381" Properties=species:S:1:pos:R:3:initial_magmoms:R:1 pbc="T T T"
Si      -1.10284929      -0.02894733       2.08307542       0.00000000
Si      -1.35097694       0.13833468      -1.95079856       0.00000000
Si       1.74980664       1.62199530       0.07341418       0.00000000
Si       1.17789732      -2.06798292      -0.20061011       0.00000000
Si       2.76468993      -1.18954467      -1.81347533       0.00000000
Si       0.44839854      -1.45979577       3.24598501       0.00000000
Si       3.71337066       0.26743293      -0.16991718       0.00000000
Si      -2.48322268       2.27450754      -1.60774973       0.00000000
Si       1.74506625       2.58339852      -2.08335193       0.00000000
Si       2.29048803      -2.31365241       1.89394059       0.00000000
