10
Lattice="16.28999089631971 0.0 0.0 0.0 16.28999089631971 0.0 0.0 0.0 34.56409401068381" Properties=species:S:1:pos:R:3:initial_magmoms:R:1 pbc="T T T"
Si      -1.35231924      -1.29588579       1.40848213       0.00000000
Si       1.60368534      -0.97570584      -1.52928919       0.00000000
Si      -0.73759491      -0.93731031      -2.11974794       0.00000000
Si       1.34573319       1.39554801       1.47071481       0.00000000
Si       2.49116454       1.14719067      -2.27079312       0.00000000
Si       2.62933632       2.60395650      -0.07538433       0.00000000
Si       0.11091861      -2.51224380       2.83529218       0.00000000
Si      -2.20937035      -3.08568438      -0.10835850       0.00000000
Si      -2.61980081       0.19544742       2.82235483       0.00000000
Si       3.04689789      -2.41258158      -0.24906900       0.00000000
