10
Lattice="16.28999089631971 0.0 0.0 0.0 16.28999089631971 0.0 0.0 0.0 34.56409401068381" Properties=species:S:1:pos:R:3:initial_magmoms:R:1 pbc="T T T"
Si       1.35677781      -1.35707103      -1.35757468       0.00000000
Si      -1.35786924      -1.35708732       1.35719447       0.00000000
Si       1.35765747       1.35860229       1.35664145       0.00000000
Si      -1.35843939       1.35799956      -1.35788576       0.00000000
Si      -0.00039096       2.71324611       2.71577151       0.00000000
Si       2.71127502      -0.00188964       2.71781080       0.00000000
Si       2.71454931      -2.71464705       0.00013826       0.00000000
Si       2.71441899       2.71516833       0.00010369       0.00000000
Si       0.00066789      -2.71463076      -2.71542587       0.00000000
Si      -2.71514504       2.71495656      -0.00003456       0.00000000
