10
Lattice="16.28999089631971 0.0 0.0 0.0 16.28999089631971 0.0 0.0 0.0 34.56409401068381" Properties=species:S:1:pos:R:3:initial_magmoms:R:1 pbc="T T T"
Si       1.07352077      -1.53363834       1.31972698       0.00000000
Si      -1.55652320       0.80878221       1.55507402       0.00000000
Si      -1.36759178      -1.44557460      -1.24949270       0.00000000
Si       1.53749255       1.37197638      -1.16270221       0.00000000
Si       0.42903950       1.84311576       2.49017154       0.00000000
Si       2.16600962       0.25373304       2.64488052       0.00000000
Si      -0.71848348      -2.61232956       2.40538577       0.00000000
Si       0.01938999       2.66300775      -2.51958561       0.00000000
Si      -2.71156565      -0.06134814      -2.55822828       0.00000000
Si       2.74617797      -0.06553467      -2.55238695       0.00000000
