10
Lattice="16.28999089631971 0.0 0.0 0.0 16.28999089631971 0.0 0.0 0.0 34.56409401068381" Properties=species:S:1:pos:R:3:initial_magmoms:R:1 pbc="T T T"
Si       0.79040709       0.38985228      -2.17021155       0.00000000
Si       0.02156796       2.30614272       0.59633465       0.00000000
Si      -2.00136334      -1.30425885      -0.04745653       0.00000000
Si       1.88675667      -0.80946639       1.44270609       0.00000000
Si      -1.34200278      -2.89396737       1.59375127       0.00000000
Si       0.50771043       2.23433640       2.84486848       0.00000000
Si       2.73201219       1.69761348      -1.91571598       0.00000000
Si      -2.02621210       3.17314539      -0.22684428       0.00000000
Si       0.99927747      -2.93236290       2.18421001       0.00000000
Si      -0.82961712       1.51645239      -3.46328959       0.00000000
