10
Lattice="16.28999089631971 0.0 0.0 0.0 16.28999089631971 0.0 0.0 0.0 34.56409401068381" Properties=species:S:1:pos:R:3:initial_magmoms:R:1 pbc="T T T"
Si       1.35804843      -1.35464382      -1.35913006       0.00000000
Si      -1.35623372       1.36151820      -1.35788576       0.00000000
Si      -1.35360615      -1.34695494       1.38474207       0.00000000
Si       1.36827855       1.35078309       1.38968474       0.00000000
Si       0.16449642      -2.63798631       2.74162547       0.00000000
Si       2.71166598      -2.71513575       0.00203928       0.00000000
Si      -2.71365393      -2.71469592       0.00190103       0.00000000
Si       0.00039096      -2.71324611      -2.71577151       0.00000000
Si      -2.71315810       2.71625576      -0.00190103       0.00000000
Si       2.71480995       0.00192222      -2.71566782       0.00000000
