10
Lattice="16.28999089631971 0.0 0.0 0.0 16.28999089631971 0.0 0.0 0.0 34.56409401068381" Properties=species:S:1:pos:R:3:initial_magmoms:R:1 pbc="T T T"
Si      -1.51487715       1.44448317      -1.18603298       0.00000000
Si      -0.87034212      -2.09368854       0.87215627       0.00000000
Si       1.70777844      -1.31114952      -1.26321465       0.00000000
Si      -0.07200180       1.28671452       2.17867976       0.00000000
Si      -2.29557865       0.90782541       1.55801197       0.00000000
Si      -2.05707025      -1.23083982       2.65241549       0.00000000
Si      -0.01549179       2.65209345      -2.67702514       0.00000000
Si      -2.73438143       0.01888011      -2.61436040       0.00000000
Si       0.23811093      -2.56482792      -2.78071748       0.00000000
Si      -0.08050518      -0.51166890       3.76451584       0.00000000
