10
Lattice="16.28999089631971 0.0 0.0 0.0 16.28999089631971 0.0 0.0 0.0 34.56409401068381" Properties=species:S:1:pos:R:3:initial_magmoms:R:1 pbc="T T T"
Si       2.22357686       0.37888911       0.62066778       0.00000000
Si      -1.66644975       1.04578542       1.33376001       0.00000000
Si       0.23850841      -2.13866523       1.09440352       0.00000000
Si       0.45673088       2.48686954       0.28926706       0.00000000
Si       0.78070151       0.53665776      -2.74404496       0.00000000
Si       2.29557865      -0.90782541      -1.55801197       0.00000000
Si       1.42523653      -3.00151395      -0.68585570       0.00000000
Si      -3.29773035      -0.65943549       0.62087517       0.00000000
Si       2.21507348      -1.41949431       2.20650387       0.00000000
Si      -2.54915598       2.85712169       0.02547375       0.00000000
