10
Lattice="16.28999089631971 0.0 0.0 0.0 16.28999089631971 0.0 0.0 0.0 34.56409401068381" Properties=species:S:1:pos:R:3:initial_magmoms:R:1 pbc="T T T"
Si      -1.97656507      -0.71917092      -1.11210035       0.00000000
Si       0.00850338       1.79838342      -1.58583608       0.00000000
Si       1.91774025      -1.46758239       0.10403798       0.00000000
Si      -0.15700302       0.98148879       2.21680397       0.00000000
Si      -0.78983694      -1.58201964      -2.89235957       0.00000000
Si      -2.21507348       1.41949431      -2.20650387       0.00000000
Si       2.90364363      -0.40928625       1.94409312       0.00000000
Si       1.06396506       2.93231403       1.78426866       0.00000000
Si       0.08050518       0.51166890      -3.76451584       0.00000000
Si       0.24943248       3.81168311      -0.27983106       0.00000000
