10
Lattice="16.28999089631971 0.0 0.0 0.0 16.28999089631971 0.0 0.0 0.0 34.56409401068381" Properties=species:S:1:pos:R:3:initial_magmoms:R:1 pbc="T T T"
Si       1.22096808       1.95082524      -0.43253531       0.00000000
Si      -2.01488729       0.81811638       0.86901094       0.00000000
Si       1.50327378      -1.10789919       1.45933143       0.00000000
Si       0.15700302      -0.98148879      -2.21680397       0.00000000
Si       3.06064665      -1.39077504      -0.27271085       0.00000000
Si       3.29605344       0.95172696      -0.92469372       0.00000000
Si       0.40643550       2.83019432      -2.49663503       0.00000000
Si      -3.02098769       2.16643968      -0.85494334       0.00000000
Si       2.07474327      -2.44907118      -2.11276599       0.00000000
Si       0.41124105      -2.87665110       2.54505936       0.00000000
