10
Lattice="16.28999089631971 0.0 0.0 0.0 16.28999089631971 0.0 0.0 0.0 34.529650657227435" Properties=species:S:1:pos:R:3:initial_magmoms:R:1 pbc="T T T"
Si      -0.62220537       1.42263828      -1.74247073       0.00000000
Si      -0.13728397      -2.28778389      -0.53054838       0.00000000
Si      -1.94237955       0.02236617       1.34710601       0.00000000
Si       1.81970540       0.77866200       1.39309953       0.00000000
Si      -0.90622152      -1.12317921       3.14282150       0.00000000
Si      -0.40451084      -3.02094792       1.70372845       0.00000000
Si      -2.51220375       2.28996675       1.35698150       0.00000000
Si      -2.74772457       2.22630543      -1.05885233       0.00000000
Si       1.34167535       2.51846171      -2.35492349       0.00000000
Si       1.18602440      -0.14186961       3.52119762       0.00000000
