10
Lattice="16.28999089631971 0.0 0.0 0.0 16.28999089631971 0.0 0.0 0.0 34.529650657227435" Properties=species:S:1:pos:R:3:initial_magmoms:R:1 pbc="T T T"
Si      -0.63368100      -0.92053161       2.12809809       0.00000000
Si       2.06091306      -0.95443110      -0.78927920       0.00000000
Si      -1.81970540      -0.77866200      -1.39309953       0.00000000
Si      -0.23139945       2.42889506       0.08218061       0.00000000
Si       1.58825871      -3.31369551      -0.50040398       0.00000000
Si       0.62289702       3.00521897      -2.09564020       0.00000000
Si      -2.72592692      -1.90184121       1.74972197       0.00000000
Si      -3.76208495      -0.75629583      -0.04599352       0.00000000
Si      -2.44191077       0.64397628      -3.13557027       0.00000000
Si      -2.59814816       3.02963768       0.54878004       0.00000000
