10
Lattice="16.28999089631971 0.0 0.0 0.0 16.28999089631971 0.0 0.0 0.0 34.529650657227435" Properties=species:S:1:pos:R:3:initial_magmoms:R:1 pbc="T T T"
Si       1.43430192       1.31064453       1.43229558       0.00000000
Si      -1.30117352      -1.36459701       1.50942796       0.00000000
Si      -1.46066728       1.63668888      -1.20663932       0.00000000
Si       0.21921453      -1.60114410      -1.92223220       0.00000000
Si      -1.05109596       0.07711686      -3.16519673       0.00000000
Si       2.48609835      -2.81940804      -0.03832793       0.00000000
Si      -1.29568542      -3.32188938      -1.27670002       0.00000000
Si       0.01591533       2.60497332       2.91539670       0.00000000
Si      -2.84507198      -2.70730026       0.29276468       0.00000000
Si       2.46259188       3.11014937       0.13014233       0.00000000
