10
Lattice="16.28999089631971 0.0 0.0 0.0 16.28999089631971 0.0 0.0 0.0 34.529650657227435" Properties=species:S:1:pos:R:3:initial_magmoms:R:1 pbc="T T T"
Si       1.38956958      -1.23511106      -1.41487740       0.00000000
Si       1.35267273       1.34483724       1.36531006       0.00000000
Si      -1.36146933      -1.36879006       1.36258221       0.00000000
Si      -1.39305564       1.27869984      -1.47867096       0.00000000
Si      -0.26997417      -2.23424843      -2.79542682       0.00000000
Si      -2.26038411      -0.59293971      -2.74843194       0.00000000
Si       2.71671588       2.68850160      -0.02446082       0.00000000
Si      -2.72697858       2.67933033      -0.01183332       0.00000000
Si       2.42947431       0.20442321      -2.95564449       0.00000000
Si      -0.00172674       2.70239697       2.72350009       0.00000000
