10
Lattice="16.28999089631971 0.0 0.0 0.0 16.28999089631971 0.0 0.0 0.0 34.529650657227435" Properties=species:S:1:pos:R:3:initial_magmoms:R:1 pbc="T T T"
Si       1.91097990      -1.21532197       0.51746163       0.00000000
Si      -2.03488164      -0.43062615       1.18077659       0.00000000
Si       0.62890803       2.30106024       0.26411745       0.00000000
Si      -0.08720037       0.25927164      -2.68892899       0.00000000
Si      -2.19160773       1.27335672      -1.92458021       0.00000000
Si      -2.72898225       1.61997534       0.40748464       0.00000000
Si       2.20828869       1.07922879      -2.27250117       0.00000000
Si       3.48915510       0.18262719      -0.51977512       0.00000000
Si      -3.13580871      -1.69604540      -0.47160623       0.00000000
Si      -0.28427679      -2.11423742      -2.91423508       0.00000000
