10
Lattice="16.28999089631971 0.0 0.0 0.0 16.28999089631971 0.0 0.0 0.0 34.529650657227435" Properties=species:S:1:pos:R:3:initial_magmoms:R:1 pbc="T T T"
Si      -2.19958398      -0.14290565      -0.71693954       0.00000000
Si       0.54147634      -2.31291514      -0.08466675       0.00000000
Si       1.60565317       0.92463995      -1.56229492       0.00000000
Si      -0.24168170       0.80540692       2.28551885       0.00000000
Si      -2.83629492      -1.84446361       0.82608782       0.00000000
Si       2.82364018      -2.08638640      -0.32150576       0.00000000
Si       2.85014401      -0.94408273      -2.32484815       0.00000000
Si       3.29100028      -0.95245579       1.69851447       0.00000000
Si       1.38366934       2.43513834       2.68816934       0.00000000
Si      -3.36514977       1.89489678      -0.59235649       0.00000000
