10
Lattice="16.28999089631971 0.0 0.0 0.0 16.28999089631971 0.0 0.0 0.0 34.529650657227435" Properties=species:S:1:pos:R:3:initial_magmoms:R:1 pbc="T T T"
Si      -1.05151950      -1.85981301      -1.00153308       0.00000000
Si       2.11235688       0.51175035      -0.92315073       0.00000000
Si       0.66137400      -0.39949596       2.31341883       0.00000000
Si      -1.65358161       1.80822258      -1.11220067       0.00000000
Si       1.18258884      -2.66489739       1.67993750       0.00000000
Si       2.43027252       2.32350786       0.72146292       0.00000000
Si      -0.90512127      -3.33827712       0.85112183       0.00000000
Si       1.62939096       1.28054061      -3.13781470       0.00000000
Si       2.67146226       0.91028520       2.56565807       0.00000000
Si      -1.48669056       3.54190212       0.63541499       0.00000000
