10
Lattice="16.28999089631971 0.0 0.0 0.0 16.28999089631971 0.0 0.0 0.0 34.529650657227435" Properties=species:S:1:pos:R:3:initial_magmoms:R:1 pbc="T T T"
Si      -0.51608349       2.26841508       0.32368113       0.00000000
Si      -2.03382279      -0.78312546      -0.97957221       0.00000000
Si       0.67487841      -0.80422101       2.15499670       0.00000000
Si       1.80786420      -0.42961617      -1.61992494       0.00000000
Si       1.00286127      -2.99485134       1.43256695       0.00000000
Si      -1.48339998      -3.06421416      -1.39600003       0.00000000
Si       1.46126187       3.48540840       0.16898820       0.00000000
Si      -1.63136205       2.39702463       2.44107502       0.00000000
Si      -3.12225543       1.02596049      -1.92506363       0.00000000
Si      -1.87105311       2.98721133      -1.51750994       0.00000000
