10
Lattice="16.28999089631971 0.0 0.0 0.0 16.28999089631971 0.0 0.0 0.0 34.529650657227435" Properties=species:S:1:pos:R:3:initial_magmoms:R:1 pbc="T T T"
Si       0.32798286      -2.19063033      -0.72242975       0.00000000
Si      -0.67487841       0.80422101      -2.15499670       0.00000000
Si      -1.25139780      -0.96879888       1.81418886       0.00000000
Si       1.83746313       0.93439440       1.26475275       0.00000000
Si       2.25072414      -1.22188032       2.34138786       0.00000000
Si       1.60884927      -3.08723193       1.03029629       0.00000000
Si      -1.19096190       3.07263609      -1.83131558       0.00000000
Si      -1.96750620      -3.01058748      -1.13885757       0.00000000
Si       0.25601364      -1.07613369       3.62319827       0.00000000
Si      -3.23485191       0.17127306       2.13310489       0.00000000
