10
Lattice="16.28999089631971 0.0 0.0 0.0 16.28999089631971 0.0 0.0 0.0 34.529650657227435" Properties=species:S:1:pos:R:3:initial_magmoms:R:1 pbc="T T T"
Si      -1.98345411       1.14007194       0.31891603       0.00000000
Si       1.50741144      -0.10733481       1.80900941       0.00000000
Si      -0.62890803      -2.30106024      -0.26411745       0.00000000
Si       1.25139780       0.96879888      -1.81418886       0.00000000
Si       1.57938066      -1.22183145      -2.53661861       0.00000000
Si      -3.35789028      -0.68108490       0.14336719       0.00000000
Si       3.50212194      -0.25308144       0.52719900       0.00000000
Si       2.86024707      -2.11843305      -0.78389257       0.00000000
Si      -0.71610840      -2.04178860      -2.95304643       0.00000000
Si       3.08886093       1.90319328      -0.54943611       0.00000000
