10
Lattice="16.28999089631971 0.0 0.0 0.0 16.28999089631971 0.0 0.0 0.0 34.529650657227435" Properties=species:S:1:pos:R:3:initial_magmoms:R:1 pbc="T T T"
Si      -1.34646624      -1.32502860       1.37776491       0.00000000
Si      -1.39460319       1.21187826      -1.49901930       0.00000000
Si       1.36622601       1.38898314       1.36775130       0.00000000
Si       1.22460075      -1.50346926      -1.50153996       0.00000000
Si       2.28488427       0.35543151      -2.60895551       0.00000000
Si       0.51052860       2.10771423      -2.82271562       0.00000000
Si      -2.68855047      -2.69003286       0.01091828       0.00000000
Si       2.72179836      -2.69177589      -0.01590091       0.00000000
Si       0.00643455      -2.68418475       2.73308898       0.00000000
Si      -2.69449632       2.74139523      -0.01983039       0.00000000
