10
Lattice="16.28999089631971 0.0 0.0 0.0 16.28999089631971 0.0 0.0 0.0 34.529650657227435" Properties=species:S:1:pos:R:3:initial_magmoms:R:1 pbc="T T T"
Si       1.35946566      -1.35405738      -1.35456442       0.00000000
Si      -1.35788553      -1.35575154       1.35725774       0.00000000
Si       1.35739683       1.35842310       1.35722321       0.00000000
Si      -1.35716877       1.35790182      -1.36295513       0.00000000
Si       2.71236645      -2.71321353       0.00075965       0.00000000
Si      -0.00050499      -2.71355562       2.71482624       0.00000000
Si      -2.71583622      -2.71321353       0.00006906       0.00000000
Si       2.71524978       0.00112401       2.71475718       0.00000000
Si      -2.71616202       0.00081450       2.71441188       0.00000000
Si       2.71437012       2.71725345      -0.00020718       0.00000000
