10
Lattice="16.28999089631971 0.0 0.0 0.0 16.28999089631971 0.0 0.0 0.0 34.529650657227435" Properties=species:S:1:pos:R:3:initial_magmoms:R:1 pbc="T T T"
Si       1.35961227      -1.35174420       1.35860439       0.00000000
Si      -1.35687555      -1.35524655      -1.35839722       0.00000000
Si      -1.35226548       1.36233270       1.35995105       0.00000000
Si       1.35887922       1.35943308      -1.35846628       0.00000000
Si       0.00084708      -2.71269225      -2.71555136       0.00000000
Si      -2.71498914      -2.71430496      -0.00006906       0.00000000
Si       2.71588509      -2.71386513      -0.00138119       0.00000000
Si      -2.71425609       0.00255753      -2.71596572       0.00000000
Si       2.71528236       0.00254124      -2.71575854       0.00000000
Si       2.71590138       2.71604799      -0.00082871       0.00000000
