10
Lattice="16.28999089631971 0.0 0.0 0.0 16.28999089631971 0.0 0.0 0.0 34.529650657227435" Properties=species:S:1:pos:R:3:initial_magmoms:R:1 pbc="T T T"
Si       1.35226548      -1.36233270      -1.35995105       0.00000000
Si      -1.36130643      -1.35430173       1.36250625       0.00000000
Si       1.35609363       1.34812782       1.37493693       0.00000000
Si      -1.36365219       1.35503478      -1.36077976       0.00000000
Si       2.71228500       2.71301805      -0.00331485       0.00000000
Si       2.71187775      -2.71407690      -0.00134666       0.00000000
Si       2.71114470      -0.00289962      -2.71841733       0.00000000
Si      -2.71774215       2.71306692      -0.00034530       0.00000000
Si      -0.00477297       2.71303434      -2.71841733       0.00000000
Si      -0.00461007      -2.71757925      -2.71834827       0.00000000
