10
Lattice="16.28999089631971 0.0 0.0 0.0 16.28999089631971 0.0 0.0 0.0 34.529650657227435" Properties=species:S:1:pos:R:3:initial_magmoms:R:1 pbc="T T T"
Si       1.34539110       1.36065483       1.38954988       0.00000000
Si      -1.36860435      -1.35446463       1.38920459       0.00000000
Si      -1.30681638       1.41219639      -1.46451034       0.00000000
Si       1.29989313      -1.52951697      -1.47918891       0.00000000
Si       2.70747945       2.71388589       0.00164016       0.00000000
Si      -2.72520297       2.70652518       0.01859077       0.00000000
Si       2.69449632      -2.74139523       0.01983039       0.00000000
Si      -2.72534958      -2.72199384       0.00799362       0.00000000
Si       2.70293454       0.00488700       2.75195254       0.00000000
Si      -0.01143558      -2.71236645       2.75215972       0.00000000
