10
Lattice="16.28999089631971 0.0 0.0 0.0 16.28999089631971 0.0 0.0 0.0 34.529650657227435" Properties=species:S:1:pos:R:3:initial_magmoms:R:1 pbc="T T T"
Si       1.33418358       1.36089333       1.33785206       0.00000000
Si      -1.35567009       1.35545410      -1.35601467       0.00000000
Si       1.35581670      -1.35773892      -1.35560031       0.00000000
Si      -1.35633798      -1.35024552       1.38546848       0.00000000
Si       2.62896165      -0.01513261       2.69697440       0.00000000
Si      -2.71324611      -2.71453302       0.00476509       0.00000000
Si      -0.00027693      -2.71456560      -2.71330694       0.00000000
Si       2.71479366      -0.00012834      -2.71358317       0.00000000
Si      -2.71521720      -0.00030358      -2.71320335       0.00000000
Si       0.00078192       2.71540358      -2.71358317       0.00000000
