10
Lattice="16.28999089631971 0.0 0.0 0.0 16.28999089631971 0.0 0.0 0.0 34.529650657227435" Properties=species:S:1:pos:R:3:initial_magmoms:R:1 pbc="T T T"
Si      -1.72967220       1.24774884       1.02076610       0.00000000
Si       0.98044623       1.55789495      -1.54938082       0.00000000
Si      -1.65754008      -1.20565548      -1.35415007       0.00000000
Si       1.92907809      -0.54069768       1.66616016       0.00000000
Si      -0.99430902      -3.39648129      -0.22689446       0.00000000
Si      -0.72057186       1.92671508       2.97849480       0.00000000
Si       0.87140097       0.36911511       3.58497392       0.00000000
Si       2.42455473       0.21494655      -2.86706756       0.00000000
Si      -0.28792575      -2.50644456      -2.86630790       0.00000000
Si       1.93534974       3.33501002      -0.17810404       0.00000000
