10
Lattice="16.28999089631971 0.0 0.0 0.0 16.28999089631971 0.0 0.0 0.0 34.529650657227435" Properties=species:S:1:pos:R:3:initial_magmoms:R:1 pbc="T T T"
Si      -1.59197283       1.55759997      -0.60647912       0.00000000
Si       1.48338369       0.14305878       1.83625332       0.00000000
Si       1.05767712      -0.90981279      -1.91881376       0.00000000
Si      -1.38559482      -1.96071327       0.02265146       0.00000000
Si       1.14259689      -2.07453150       2.47215172       0.00000000
Si       0.42350742      -3.35614725       0.57695626       0.00000000
Si       2.07858771       2.19175175      -1.75427988       0.00000000
Si      -0.87140097      -0.36911511      -3.58497392       0.00000000
Si      -2.60107317       0.87863373      -2.56420782       0.00000000
Si      -3.73397751       0.91383642       0.11398244       0.00000000
