10
Lattice="16.28999089631971 0.0 0.0 0.0 16.28999089631971 0.0 0.0 0.0 34.529650657227435" Properties=species:S:1:pos:R:3:initial_magmoms:R:1 pbc="T T T"
Si       1.35710361       1.35561340       1.35739586       0.00000000
Si      -1.35690813       1.35766105      -1.35677432       0.00000000
Si       1.35837423      -1.35738252      -1.35694697       0.00000000
Si      -1.35897696      -1.35761058       1.35798286       0.00000000
Si      -2.71479366       0.00012834       2.71358317       0.00000000
Si      -0.00003258      -2.71424178      -2.71468812       0.00000000
Si      -0.00089595       2.71546676      -2.71399753       0.00000000
Si      -2.71507059      -2.71443726       0.00027624       0.00000000
Si      -2.71401174       2.71553192       0.00000000       0.00000000
Si       0.00198738      -2.71445355       2.71537872       0.00000000
