10
Lattice="16.28999089631971 0.0 0.0 0.0 16.28999089631971 0.0 0.0 0.0 34.529650657227435" Properties=species:S:1:pos:R:3:initial_magmoms:R:1 pbc="T T T"
Si       0.71223138      -1.10669212      -1.92744618       0.00000000
Si      -1.91225052      -1.20255877       0.67874972       0.00000000
Si       0.09588294       2.31954190      -0.53241298       0.00000000
Si       1.25276616       0.35543216       2.00669177       0.00000000
Si      -0.29084166       1.95257707       2.76810552       0.00000000
Si      -1.57170807       2.84917867       1.01537947       0.00000000
Si       0.37144458      -3.32428240      -1.29154777       0.00000000
Si       2.94031242      -0.37088911      -2.02406019       0.00000000
Si       3.27414339       1.16898734       1.25194224       0.00000000
Si       2.41686585       2.83301899      -0.16805590       0.00000000
