10
Lattice="16.28999089631971 0.0 0.0 0.0 16.28999089631971 0.0 0.0 0.0 34.529650657227435" Properties=species:S:1:pos:R:3:initial_magmoms:R:1 pbc="T T T"
Si      -0.34137324       0.82947051      -2.13818075       0.00000000
Si      -1.66759101       0.52963677       1.54779246       0.00000000
Si      -0.09588294      -2.31954190       0.53241298       0.00000000
Si       2.32098291       0.51347709       0.36435708       0.00000000
Si      -0.38672460      -0.36696483       3.30051850       0.00000000
Si       1.15688322      -1.96410974       2.53910475       0.00000000
Si      -0.86258808       3.09487194      -1.50469943       0.00000000
Si       3.12407991      -0.31773645      -1.68107698       0.00000000
Si       0.61634844      -3.42623402      -1.39503320       0.00000000
Si       3.17826045      -1.15055456       1.78435522       0.00000000
