10
Lattice="16.28999089631971 0.0 0.0 0.0 16.28999089631971 0.0 0.0 0.0 34.529650657227435" Properties=species:S:1:pos:R:3:initial_magmoms:R:1 pbc="T T T"
Si       0.49656807      -0.77661828       2.14422344       0.00000000
Si       0.47918664      -1.51251903      -1.80845693       0.00000000
Si      -2.38614291      -0.36056612       0.28210740       0.00000000
Si       0.88459587       2.34698012      -0.18449203       0.00000000
Si      -2.97300645       0.01504381      -1.92036759       0.00000000
Si      -1.39483125       1.41299297      -2.95760435       0.00000000
Si      -2.94749631       1.67417054       1.21181877       0.00000000
Si      -0.00721647      -3.07341054       2.00092531       0.00000000
Si       0.14877657      -0.18415193      -3.71901810       0.00000000
Si      -0.75295638       3.27834458      -1.64651278       0.00000000
