10
Lattice="16.28999089631971 0.0 0.0 0.0 16.28999089631971 0.0 0.0 0.0 34.529650657227435" Properties=species:S:1:pos:R:3:initial_magmoms:R:1 pbc="T T T"
Si       1.35640314      -1.35925389       1.36323137       0.00000000
Si      -1.35992178       1.35783666       1.36402555       0.00000000
Si       1.35544203       1.35024552      -1.38496434       0.00000000
Si      -1.35268902      -1.37212299      -1.38459142       0.00000000
Si      -0.14175558       2.53855215      -2.87060339       0.00000000
Si       2.71679733      -2.71287144       0.00455792       0.00000000
Si      -2.71282257       2.71699281       0.00870148       0.00000000
Si      -2.71673217      -2.71578735       0.00517945       0.00000000
Si       2.71443528       2.71946889       0.00151931       0.00000000
Si       2.71480995      -0.00013032       2.72042005       0.00000000
