10
Lattice="16.28999089631971 0.0 0.0 0.0 16.28999089631971 0.0 0.0 0.0 34.529650657227435" Properties=species:S:1:pos:R:3:initial_magmoms:R:1 pbc="T T T"
Si      -1.35664749      -1.35568638       1.35777568       0.00000000
Si       1.36039419      -1.35361755      -1.35867345       0.00000000
Si       1.35840681       1.35912357       1.35718868       0.00000000
Si      -1.35640314       1.35925389      -1.36323137       0.00000000
Si       2.69431713      -0.01080027      -2.73143156       0.00000000
Si       0.00091224      -2.71298547       2.71437736       0.00000000
Si       2.71353933      -2.71386513      -0.00034530       0.00000000
Si      -2.71518462      -2.71272483       0.00051795       0.00000000
Si      -2.71437012       0.00086337       2.71385941       0.00000000
Si       2.71476108       2.71562445      -0.00058700       0.00000000
