10
Lattice="16.28999089631971 0.0 0.0 0.0 16.28999089631971 0.0 0.0 0.0 34.529650657227435" Properties=species:S:1:pos:R:3:initial_magmoms:R:1 pbc="T T T"
Si      -2.12644773       0.99815346      -0.20096268       0.00000000
Si       0.56847213      -0.84369168       2.13369190       0.00000000
Si       0.23024286      -1.60708995      -1.73763658       0.00000000
Si       1.34053668       1.96615413      -0.53541706       0.00000000
Si      -1.82428452       1.14116337      -2.59832313       0.00000000
Si      -0.01094688      -0.19386729      -3.58183172       0.00000000
Si       0.75880449       1.30574124       3.32783147       0.00000000
Si       3.50801892       1.19803176      -0.31684425       0.00000000
Si       2.61825912      -2.02272930       1.74626900       0.00000000
Si       2.51542035      -2.31961455      -1.96004219       0.00000000
