10
Lattice="16.28999089631971 0.0 0.0 0.0 16.28999089631971 0.0 0.0 0.0 34.529650657227435" Properties=species:S:1:pos:R:3:initial_magmoms:R:1 pbc="T T T"
Si       1.34837217       1.34688978       1.37567932       0.00000000
Si      -1.36495539      -1.36992384       1.36469888       0.00000000
Si       1.31797503      -1.34237745      -1.44120627       0.00000000
Si      -1.30888521       1.31575959      -1.50874976       0.00000000
Si      -0.44629713      -2.40347547      -2.61200793       0.00000000
Si      -2.22065280      -0.65119275      -2.82576804       0.00000000
Si       2.68253946       2.69754904       0.00080109       0.00000000
Si      -2.71819827       2.69637414      -0.02124265       0.00000000
Si       2.69296506      -2.73504213      -0.01284849       0.00000000
Si      -0.00633681       2.69994980       2.72979485       0.00000000
