10
Lattice="16.28999089631971 0.0 0.0 0.0 16.28999089631971 0.0 0.0 0.0 34.529650657227435" Properties=species:S:1:pos:R:3:initial_magmoms:R:1 pbc="T T T"
Si       1.34939844       1.32933960       1.36447444       0.00000000
Si       1.35166275      -1.35594702      -1.35784474       0.00000000
Si      -1.36326123       1.35804258      -1.35736133       0.00000000
Si      -1.36208835      -1.35552348       1.37811366       0.00000000
Si      -0.09438426       2.62655792       2.69794123       0.00000000
Si       2.70482418      -2.71060713       0.00124307       0.00000000
Si       2.70985779       0.00220540      -2.71468812       0.00000000
Si      -0.00447975      -2.71283886      -2.71461906       0.00000000
Si      -2.71837746      -2.71202436       0.00062153       0.00000000
Si       2.71389771       2.71700000       0.00410903       0.00000000
