10
Lattice="16.28999089631971 0.0 0.0 0.0 16.28999089631971 0.0 0.0 0.0 34.529650657227435" Properties=species:S:1:pos:R:3:initial_magmoms:R:1 pbc="T T T"
Si      -0.56695716      -2.24860644       0.18411220       0.00000000
Si       0.49226751       0.44843112      -2.24028499       0.00000000
Si       1.54347750       0.66745017       1.70638723       0.00000000
Si      -1.85930802       1.31483106       0.77073676       0.00000000
Si      -0.55177488      -2.11939416       2.61679651       0.00000000
Si      -0.83544894       3.38029459      -0.01243068       0.00000000
Si       0.00993690       0.07825716       3.48525224       0.00000000
Si       2.02988061       2.22834168      -2.10299502       0.00000000
Si      -1.39238775       1.60516773      -3.06820288       0.00000000
Si      -2.53428417      -2.66031990      -1.06479143       0.00000000
