10
Lattice="16.28999089631971 0.0 0.0 0.0 16.28999089631971 0.0 0.0 0.0 34.529650657227435" Properties=species:S:1:pos:R:3:initial_magmoms:R:1 pbc="T T T"
Si      -1.10229543      -1.38061008       1.64563715       0.00000000
Si       1.45901385      -1.50791643      -1.39810634       0.00000000
Si       1.54683324       1.29888871       1.59883218       0.00000000
Si      -1.94699709       1.23907183      -1.38495053       0.00000000
Si      -0.33928812      -0.18582003      -3.75296077       0.00000000
Si       1.98878094       0.11249322      -3.26674849       0.00000000
Si      -2.01406302      -3.34756242       0.32861887       0.00000000
Si       2.87979507      -2.75827167       0.11470756       0.00000000
Si      -2.51160849       0.00000447       3.13314425       0.00000000
Si       2.70394452       2.21002262      -2.01190575       0.00000000
