10
Lattice="16.28999089631971 0.0 0.0 0.0 16.28999089631971 0.0 0.0 0.0 34.529650657227435" Properties=species:S:1:pos:R:3:initial_magmoms:R:1 pbc="T T T"
Si       1.35488817       1.35733982      -1.35805192       0.00000000
Si       1.35728280      -1.35721043       1.35687791       0.00000000
Si      -1.35656604      -1.35865387      -1.35715415       0.00000000
Si      -1.35773892       1.35821947       1.35667073       0.00000000
Si      -0.00185706      -2.71171389      -2.71126968       0.00000000
Si      -2.71456560      -2.71436916      -0.00013812       0.00000000
Si      -0.00162900       2.71550227       2.71344505       0.00000000
Si      -0.00091224      -2.71536285       2.71372129       0.00000000
Si       2.71446786      -0.00066300       2.71517154       0.00000000
Si       2.71500543      -2.71471125      -0.00027624       0.00000000
