10
Lattice="16.28999089631971 0.0 0.0 0.0 16.28999089631971 0.0 0.0 0.0 34.529650657227435" Properties=species:S:1:pos:R:3:initial_magmoms:R:1 pbc="T T T"
Si       1.35656604       1.35565380       1.35846628       0.00000000
Si      -1.35799141      -1.35769005       1.35684338       0.00000000
Si      -1.35776661       1.35752715      -1.35760303       0.00000000
Si       1.35772263      -1.35780408      -1.35753397       0.00000000
Si      -0.00120546      -2.71438641      -2.71354864       0.00000000
Si      -2.71205375      -0.00462636       2.71662178       0.00000000
Si       2.71467963       2.71471221       0.00013812       0.00000000
Si      -2.71416484       2.71529865      -0.00031077       0.00000000
Si      -2.71488132      -0.00255753      -2.71465359       0.00000000
Si      -0.00065160       2.71505430      -2.71461906       0.00000000
