10
Lattice="16.28999089631971 0.0 0.0 0.0 16.28999089631971 0.0 0.0 0.0 34.529650657227435" Properties=species:S:1:pos:R:3:initial_magmoms:R:1 pbc="T T T"
Si      -1.15797465       1.51430211      -1.31357770       0.00000000
Si       1.08582365       0.23556969       2.07209096       0.00000000
Si       1.55222427      -1.22492655      -1.30560135       0.00000000
Si      -1.98882981      -0.66191157       1.38018544       0.00000000
Si      -0.81635706      -0.69603912       3.40213932       0.00000000
Si      -2.53394208      -2.62650905       0.14053576       0.00000000
Si      -2.50196481       0.14239089      -2.67691266       0.00000000
Si       0.21102066      -2.57375847      -2.68122887       0.00000000
Si      -2.55233349       2.76760584       0.16995504       0.00000000
Si       0.88495166       2.67211386       2.51925019       0.00000000
