10
Lattice="16.28999089631971 0.0 0.0 0.0 16.28999089631971 0.0 0.0 0.0 34.529650657227435" Properties=species:S:1:pos:R:3:initial_magmoms:R:1 pbc="T T T"
Si       2.19958398       0.14290565       0.71693954       0.00000000
Si      -1.16556579       2.03780244       0.12458305       0.00000000
Si      -0.63671094      -1.70155796       1.54302736       0.00000000
Si      -0.40407345      -0.71332511      -2.24270206       0.00000000
Si       2.74106033      -2.17000949       0.63227279       0.00000000
Si      -2.66631462      -1.86618470      -1.76798816       0.00000000
Si       1.95790229       0.94831258       3.00245839       0.00000000
Si      -0.77305824       3.06519645      -1.95199677       0.00000000
Si      -0.19153782       1.36491141      -3.46888517       0.00000000
Si      -2.82807432      -1.25359925       2.13897493       0.00000000
