10
Lattice="16.28999089631971 0.0 0.0 0.0 16.28999089631971 0.0 0.0 0.0 34.529650657227435" Properties=species:S:1:pos:R:3:initial_magmoms:R:1 pbc="T T T"
Si      -1.73376099      -1.51833293      -0.58489808       0.00000000
Si      -0.10002060       0.90303615       2.22049949       0.00000000
Si      -0.96739794       1.83845682      -1.24068557       0.00000000
Si       2.36674871      -0.60074262      -0.46659943       0.00000000
Si      -2.61027702       0.79506603       2.49791085       0.00000000
Si       2.04262658      -0.07006329       3.09382390       0.00000000
Si       3.43861442       0.61214562       1.32804564       0.00000000
Si      -3.32544060      -1.30246337       1.24306812       0.00000000
Si      -0.89205669       3.70836963       0.31270069       0.00000000
Si      -1.96928181      -1.58199425      -3.00073191       0.00000000
