10
Lattice="16.28999089631971 0.0 0.0 0.0 16.28999089631971 0.0 0.0 0.0 34.529650657227435" Properties=species:S:1:pos:R:3:initial_magmoms:R:1 pbc="T T T"
Si       1.16803928      -0.52922952       1.95289454       0.00000000
Si       0.78532854       1.74226437      -1.46930652       0.00000000
Si      -2.32538121       0.27155430       0.58520885       0.00000000
Si       0.36412664      -2.15749647      -1.18460939       0.00000000
Si      -2.83089249       1.58988771      -1.27417935       0.00000000
Si      -1.08074376       3.14724429      -1.23761243       0.00000000
Si      -0.37866105      -2.02779549       2.91941454       0.00000000
Si       3.16745108      -1.45619568       1.13070857       0.00000000
Si       0.95050588      -1.58961078      -3.43514969       0.00000000
Si       2.61596942      -2.85796647      -0.65806645       0.00000000
