10
Lattice="16.28999089631971 0.0 0.0 0.0 16.28999089631971 0.0 0.0 0.0 34.529650657227435" Properties=species:S:1:pos:R:3:initial_magmoms:R:1 pbc="T T T"
Si       0.18091674      -1.54095255      -1.73801641       0.00000000
Si       0.97269219      -0.81981054       1.99253460       0.00000000
Si       1.39527108       1.90242765      -0.20372505       0.00000000
Si      -2.04978699       1.17903762       0.38742290       0.00000000
Si      -0.17547588       0.95793345       2.98077376       0.00000000
Si       0.60206211       3.01179294       1.79602625       0.00000000
Si      -0.10283877      -0.29688525      -3.70631118       0.00000000
Si      -2.61825912       2.02272930      -1.74626900       0.00000000
Si       2.42460360      -2.32153677      -1.75055068       0.00000000
Si       0.88975980       3.22076106      -2.06311325       0.00000000
