10
Lattice="16.28999089631971 0.0 0.0 0.0 16.28999089631971 0.0 0.0 0.0 34.529650657227435" Properties=species:S:1:pos:R:3:initial_magmoms:R:1 pbc="T T T"
Si      -1.14816807       1.77774399       0.98823915       0.00000000
Si      -0.97269219       0.81981054      -1.99253460       0.00000000
Si       2.36929905       0.42288840       0.13794603       0.00000000
Si      -0.39692214      -2.21809527       0.91817845       0.00000000
Si       2.89901727      -1.83107745       0.12454852       0.00000000
Si       0.42257889       2.72223819      -2.19625966       0.00000000
Si       0.64584963       2.70461241       2.19315199       0.00000000
Si       1.68257781      -2.28654585       2.18082489       0.00000000
Si       2.49256548       1.30394934       2.32695446       0.00000000
Si       0.20729025      -3.75287391      -0.80246953       0.00000000
