10
Lattice="16.28999089631971 0.0 0.0 0.0 16.28999089631971 0.0 0.0 0.0 34.529650657227435" Properties=species:S:1:pos:R:3:initial_magmoms:R:1 pbc="T T T"
Si       0.33578577      -0.31548843       2.22574424       0.00000000
Si      -0.19738593       2.27817279      -0.35158110       0.00000000
Si      -0.62503101      -1.71108531      -1.46243511       0.00000000
Si       2.14856955      -2.04390630       1.99640193       0.00000000
Si       0.46073007       2.36349981      -2.66803854       0.00000000
Si      -2.10571056      -0.50016816      -2.96447575       0.00000000
Si      -2.40580494       2.96217360       0.14488650       0.00000000
Si       1.37340990      -2.62677879      -2.48893314       0.00000000
Si      -1.58154723      -1.07870751       3.38536278       0.00000000
Si      -1.83208743      -3.49005105      -0.33100142       0.00000000
