10
Lattice="16.28999089631971 0.0 0.0 0.0 16.28999089631971 0.0 0.0 0.0 34.529650657227435" Properties=species:S:1:pos:R:3:initial_magmoms:R:1 pbc="T T T"
Si      -1.35843939       1.35596331      -1.36492332       0.00000000
Si       1.35944937      -1.35850455      -1.36395649       0.00000000
Si       1.36477620       1.34780202       1.38588283       0.00000000
Si      -1.35988920      -1.36329381       1.39088964       0.00000000
Si      -2.71243161       2.71309950      -0.00552475       0.00000000
Si      -2.71464705      -2.71696023      -0.00462698       0.00000000
Si       2.71762686       2.71492398      -0.00804541       0.00000000
Si      -2.71384884      -0.00171045      -2.72155953       0.00000000
Si       0.00081450       2.71342530      -2.72204294       0.00000000
Si       2.71718899      -0.00161271      -2.72214653       0.00000000
