10
Lattice="16.28999089631971 0.0 0.0 0.0 16.28999089631971 0.0 0.0 0.0 34.529650657227435" Properties=species:S:1:pos:R:3:initial_magmoms:R:1 pbc="T T T"
Si       1.35501118      -1.35333713      -1.35819004       0.00000000
Si       1.35679168       1.35796625       1.35684338       0.00000000
Si      -1.35820954      -1.35700238       1.35708509       0.00000000
Si      -1.35601039       1.35645780      -1.36402555       0.00000000
Si       2.71195189      -2.71549064      -0.00041436       0.00000000
Si       2.71382524       0.00054699       2.71455000       0.00000000
Si      -0.00078883      -2.71441550       2.71437736       0.00000000
Si       2.71304332       2.71656365       0.00082871       0.00000000
Si      -2.71593217       0.00049843       2.71423924       0.00000000
Si      -2.71731682      -2.71296569      -0.00027624       0.00000000
