10
Lattice="16.28999089631971 0.0 0.0 0.0 16.28999089631971 0.0 0.0 0.0 34.529650657227435" Properties=species:S:1:pos:R:3:initial_magmoms:R:1 pbc="T T T"
Si       1.35692442      -1.35710361       1.35725774       0.00000000
Si      -1.35705474       1.35705474       1.35739586       0.00000000
Si       1.35589815       1.35863487      -1.35718868       0.00000000
Si      -1.35840681      -1.35938421      -1.35743039       0.00000000
Si      -0.00091224       2.71394658       2.71417018       0.00000000
Si      -0.00185706       2.71759554      -2.71082080       0.00000000
Si      -0.00232947      -2.71456560       2.71437736       0.00000000
Si       2.71406061      -0.00223173       2.71513701       0.00000000
Si      -2.71456560       2.71494027       0.00031077       0.00000000
Si       2.71500543       2.71459818       0.00017265       0.00000000
