10
Lattice="16.28999089631971 0.0 0.0 0.0 16.28999089631971 0.0 0.0 0.0 34.529650657227435" Properties=species:S:1:pos:R:3:initial_magmoms:R:1 pbc="T T T"
Si      -1.81204421      -1.62450396       0.26149319       0.00000000
Si       0.72480726      -0.78685587      -2.21090024       0.00000000
Si      -1.13885345       2.30650110      -0.42202163       0.00000000
Si       1.41804450      -2.84524398       0.18107359       0.00000000
Si      -2.48628767       1.19048949      -2.05050992       0.00000000
Si       3.15138195       0.79930143       1.19234403       0.00000000
Si       2.67053373       0.95622300      -2.33672635       0.00000000
Si      -3.64798979      -0.38680605      -0.66428179       0.00000000
Si      -1.12327206      -0.06952572      -3.56746738       0.00000000
Si      -1.93306425      -2.30441598       2.54279943       0.00000000
