10
Lattice="16.28999089631971 0.0 0.0 0.0 16.28999089631971 0.0 0.0 0.0 34.529650657227435" Properties=species:S:1:pos:R:3:initial_magmoms:R:1 pbc="T T T"
Si      -1.67633874      -0.38524221      -1.57127263       0.00000000
Si       1.96810471       0.35445411      -1.24935252       0.00000000
Si       0.04170240      -1.90650015       1.38788555       0.00000000
Si      -0.13118337       2.06052210       1.21661839       0.00000000
Si      -0.56762505      -0.68997924       3.31208594       0.00000000
Si       0.94659561       1.11347037       3.12586743       0.00000000
Si      -2.16078705       1.89589536      -2.09439713       0.00000000
Si       3.24658790       1.59207057       0.30586382       0.00000000
Si       2.97500102      -1.74171051      -1.52158444       0.00000000
Si       0.50552757       3.76208006      -0.32640897       0.00000000
