10
Lattice="16.28999089631971 0.0 0.0 0.0 16.28999089631971 0.0 0.0 0.0 34.529650657227435" Properties=species:S:1:pos:R:3:initial_magmoms:R:1 pbc="T T T"
Si       1.67633874       0.38524221       1.57127263       0.00000000
Si      -1.77697836      -1.47334905       0.48769706       0.00000000
Si      -0.48444831       2.28113757      -0.52312450       0.00000000
Si       1.16709705      -1.28604663      -1.89864843       0.00000000
Si       3.64444345       0.73969632       0.32192011       0.00000000
Si       1.71804114      -1.52125794       2.95915819       0.00000000
Si      -1.37016819      -3.54773394      -0.47599150       0.00000000
Si      -1.61295435       3.31117056       1.26261191       0.00000000
Si       1.77779286       3.43399716      -0.99783840       0.00000000
Si      -0.19500759      -3.18285423      -2.42629632       0.00000000
