10
Lattice="16.28999089631971 0.0 0.0 0.0 16.28999089631971 0.0 0.0 0.0 34.529650657227435" Properties=species:S:1:pos:R:3:initial_magmoms:R:1 pbc="T T T"
Si      -2.19136338       0.44795871       0.59594757       0.00000000
Si       0.63671094       1.70155796      -1.54302736       0.00000000
Si       1.07777898      -0.94705173       1.90924904       0.00000000
Si       0.13118337      -2.06052210      -1.21661839       0.00000000
Si      -2.47656870      -1.51578450       1.88317914       0.00000000
Si       2.83629492       1.84446361      -0.82608782       0.00000000
Si      -0.43644168      -2.75050134       2.09546755       0.00000000
Si       3.37777127      -0.46845153      -0.91075457       0.00000000
Si      -3.15810972       0.86540625      -1.52527911       0.00000000
Si       2.09928808      -1.70606799      -2.46597091       0.00000000
