10
Lattice="16.28999089631971 0.0 0.0 0.0 16.28999089631971 0.0 0.0 0.0 34.529650657227435" Properties=species:S:1:pos:R:3:initial_magmoms:R:1 pbc="T T T"
Si      -0.56982420       2.26760058       0.00987549       0.00000000
Si       1.94237955      -0.02236617      -1.34710601       0.00000000
Si       1.03615803      -1.14554538       1.79571549       0.00000000
Si      -1.60837686      -1.17968922      -1.31364676       0.00000000
Si      -0.80534502       2.20393926      -2.40595834       0.00000000
Si       1.53786871      -3.04331409       0.35662243       0.00000000
Si       1.80509557      -2.31015006      -1.87765439       0.00000000
Si      -2.56052736      -2.56033188       0.35734755       0.00000000
Si       1.32017418       1.40027211      -3.08957675       0.00000000
Si      -2.41688214       0.46395549      -2.83864964       0.00000000
