10
Lattice="16.28999089631971 0.0 0.0 0.0 16.28999089631971 0.0 0.0 0.0 34.529650657227435" Properties=species:S:1:pos:R:3:initial_magmoms:R:1 pbc="T T T"
Si      -0.47340369       1.95412301      -1.22324809       0.00000000
Si       2.12551920      -0.80366715      -0.68361841       0.00000000
Si      -1.61153712      -1.73998377      -0.43269129       0.00000000
Si       0.23552082       0.06366132       2.41583383       0.00000000
Si       0.80534502      -2.20393926       2.40595834       0.00000000
Si      -0.80303184      -3.38362848       1.09231158       0.00000000
Si      -1.07761608       3.48890165       0.49739990       0.00000000
Si       2.74772457      -2.22630543       1.05885233       0.00000000
Si      -2.01064212       1.38723915      -2.86040333       0.00000000
Si      -3.70160928      -0.75468312      -0.19509264       0.00000000
