10
Lattice="16.28999089631971 0.0 0.0 0.0 16.28999089631971 0.0 0.0 0.0 34.529650657227435" Properties=species:S:1:pos:R:3:initial_magmoms:R:1 pbc="T T T"
Si       2.09224592       0.98130960       0.37837612       0.00000000
Si      -1.03615803       1.14554538      -1.79571549       0.00000000
Si       0.50171068      -1.89776871      -1.43909305       0.00000000
Si      -1.10022660      -0.82512108       2.08148303       0.00000000
Si      -1.67695776      -2.65986378      -1.06734663       0.00000000
Si       0.90622152       1.12317921      -3.14282150       0.00000000
Si       2.72592692       1.90184121      -1.74972197       0.00000000
Si       1.84765645      -2.41769664       2.26687283       0.00000000
Si       3.36255641      -0.69695136       1.62134065       0.00000000
Si      -2.33507376      -2.74519080       1.24911081       0.00000000
