10
Lattice="16.28999089631971 0.0 0.0 0.0 16.28999089631971 0.0 0.0 0.0 34.529650657227435" Properties=species:S:1:pos:R:3:initial_magmoms:R:1 pbc="T T T"
Si      -1.84807932       0.71733015      -1.35656714       0.00000000
Si      -0.72480726       0.78685587       2.21090024       0.00000000
Si       0.86771943      -1.99236474      -1.33578028       0.00000000
Si       1.94572647       1.74307887      -0.12582612       0.00000000
Si       0.69323724      -2.05838811       2.39197383       0.00000000
Si      -0.50643981       2.06871597      -2.73233278       0.00000000
Si       2.22296598      -0.65896308      -2.73312697       0.00000000
Si      -2.53685147      -0.83764809       2.47239343       0.00000000
Si      -3.21109493       1.97734536       0.16039032       0.00000000
Si       0.86035635       3.42627570      -1.36143583       0.00000000
