10
Lattice="16.28999089631971 0.0 0.0 0.0 16.28999089631971 0.0 0.0 0.0 34.529650657227435" Properties=species:S:1:pos:R:3:initial_magmoms:R:1 pbc="T T T"
Si       1.35734276       1.35738054       1.35646355       0.00000000
Si      -1.35736849       1.35723393      -1.35774115       0.00000000
Si       1.35787707      -1.35791322      -1.35791380       0.00000000
Si      -1.35766171      -1.35883361       1.35777568       0.00000000
Si       0.00328043       2.71044423       2.71624196       0.00000000
Si       0.00045285       2.71251306      -2.71503342       0.00000000
Si       2.71412871       0.00068418      -2.71392847       0.00000000
Si      -2.71448839       2.71409319      -0.00027624       0.00000000
Si      -2.71080685      -0.00058644       2.71827921       0.00000000
Si      -2.71484677      -2.71538104      -0.00051795       0.00000000
