10
Lattice="16.28999089631971 0.0 0.0 0.0 16.28999089631971 0.0 0.0 0.0 34.529650657227435" Properties=species:S:1:pos:R:3:initial_magmoms:R:1 pbc="T T T"
Si       1.31258304       1.83309741      -0.75778814       0.00000000
Si      -2.17837699       0.27515439       1.03129765       0.00000000
Si       0.67450374      -2.33077320       0.07976354       0.00000000
Si      -0.72148410      -3.01298211       1.84554180       0.00000000
Si      -2.86413128      -2.03988267       0.97221739       0.00000000
Si       0.26391429       3.76514028       0.05110391       0.00000000
Si       3.02607927      -2.21508162       0.47847764       0.00000000
Si      -3.65616737       0.76545081      -0.93558141       0.00000000
Si       3.53844864       1.66834035      -0.02299676       0.00000000
Si      -0.39736197      -3.54366144      -1.71488153       0.00000000
