10
Lattice="16.28999089631971 0.0 0.0 0.0 16.28999089631971 0.0 0.0 0.0 34.529650657227435" Properties=species:S:1:pos:R:3:initial_magmoms:R:1 pbc="T T T"
Si       1.35598609       1.35558864       1.35615279       0.00000000
Si       1.35639823      -1.35777150      -1.35729227       0.00000000
Si      -1.35819574       1.35711990      -1.35715415       0.00000000
Si      -1.35773962      -1.35689184       1.35819004       0.00000000
Si       2.70535195       0.00513135       2.71040644       0.00000000
Si      -0.00135662       2.71298547      -2.71327241       0.00000000
Si       2.71318744       2.71378368       0.00003453       0.00000000
Si       2.71351324      -0.00024435      -2.71430830       0.00000000
Si       2.71416484      -2.71529865       0.00031077       0.00000000
Si       0.00043788       2.71653669       2.71410112       0.00000000
