10
Lattice="16.28999089631971 0.0 0.0 0.0 16.28999089631971 0.0 0.0 0.0 34.529650657227435" Properties=species:S:1:pos:R:3:initial_magmoms:R:1 pbc="T T T"
Si      -1.35720135      -1.35819504       1.35611826       0.00000000
Si       1.35827649      -1.35656604      -1.35715415       0.00000000
Si      -1.35679410       1.35830907      -1.35711962       0.00000000
Si       1.35661491       1.35824391       1.35798286       0.00000000
Si      -0.00783549      -2.70865233       2.71037191       0.00000000
Si      -2.71274956       0.00275301       2.71406659       0.00000000
Si      -2.71318744      -2.71378368      -0.00003453       0.00000000
Si      -2.71454406      -0.00079821      -2.71330694       0.00000000
Si       0.00032580      -2.71402803      -2.71434283       0.00000000
Si      -0.00131949       2.71446786      -2.71451547       0.00000000
