10
Lattice="16.28999089631971 0.0 0.0 0.0 16.28999089631971 0.0 0.0 0.0 34.529650657227435" Properties=species:S:1:pos:R:3:initial_magmoms:R:1 pbc="T T T"
Si      -1.00689630       2.09616462       0.27223192       0.00000000
Si       1.77691320      -0.24609303       1.62299808       0.00000000
Si      -1.44832924      -1.41011127      -1.47600527       0.00000000
Si       1.70869068       0.85941153      -1.93314357       0.00000000
Si      -1.06722632      -1.56976956       2.67777590       0.00000000
Si       0.58051044      -0.12875616       3.64533179       0.00000000
Si      -2.97500102       1.74171051       1.52158444       0.00000000
Si       2.63976192      -2.42022159       1.30228650       0.00000000
Si       0.27158688       3.33378108       1.82744825       0.00000000
Si      -1.09828483       3.26026431      -1.74488781       0.00000000
