10
Lattice="16.28999089631971 0.0 0.0 0.0 16.28999089631971 0.0 0.0 0.0 34.529650657227435" Properties=species:S:1:pos:R:3:initial_magmoms:R:1 pbc="T T T"
Si      -1.86607230       1.40497992       0.23169409       0.00000000
Si       1.64773676       1.44101340       0.96755588       0.00000000
Si      -0.78532854      -1.74226437       1.46930652       0.00000000
Si       1.06722632       1.56976956      -2.67777590       0.00000000
Si       2.84413952       1.32367653      -1.05477783       0.00000000
Si      -1.36347693      -1.68583581      -2.78889238       0.00000000
Si      -3.61622103      -0.15237666       0.19512716       0.00000000
Si       0.16517734      -3.33187515      -1.96584317       0.00000000
Si      -0.42120190      -3.89976084       0.28469713       0.00000000
Si      -1.90777470       3.31148007      -1.15619147       0.00000000
