10
Lattice="16.28999089631971 0.0 0.0 0.0 16.28999089631971 0.0 0.0 0.0 34.529650657227435" Properties=species:S:1:pos:R:3:initial_magmoms:R:1 pbc="T T T"
Si       1.97558604       1.10268639       0.61065721       0.00000000
Si      -1.27852065       0.75833208      -1.81232426       0.00000000
Si       1.02042189      -2.12332005      -0.19678459       0.00000000
Si      -1.08708057       0.19684836       2.09702139       0.00000000
Si       2.24536473       0.06401970       2.73478439       0.00000000
Si       2.02696470      -2.19126564       2.03403927       0.00000000
Si      -1.58881257      -2.01243402       2.63934438       0.00000000
Si       1.33232652       3.32131923       1.19921544       0.00000000
Si       2.13570045      -2.25192960      -2.31417848       0.00000000
Si      -1.74980664       3.08614050      -1.56039579       0.00000000
