10
Lattice="16.28999089631971 0.0 0.0 0.0 16.28999089631971 0.0 0.0 0.0 34.529650657227435" Properties=species:S:1:pos:R:3:initial_magmoms:R:1 pbc="T T T"
Si       1.35625164       1.35859740      -1.35601467       0.00000000
Si      -1.35679168      -1.35796625      -1.35684338       0.00000000
Si       1.35703356      -1.35741926       1.35770662       0.00000000
Si      -1.35787707       1.35791322       1.35791380       0.00000000
Si      -0.00178050      -2.71130338      -2.71503342       0.00000000
Si      -0.00216657      -2.71518040       2.71403206       0.00000000
Si       2.71456071      -2.71467541       0.00006906       0.00000000
Si      -0.00053431       2.71529376       2.71437736       0.00000000
Si       0.00017756       2.71632003      -2.71347958       0.00000000
Si      -2.71500121      -2.71496863       0.00024171       0.00000000
