10
Lattice="16.28999089631971 0.0 0.0 0.0 16.28999089631971 0.0 0.0 0.0 34.529650657227435" Properties=species:S:1:pos:R:3:initial_magmoms:R:1 pbc="T T T"
Si       1.35541394       1.35720135       1.35649808       0.00000000
Si       1.35726611      -1.35723393      -1.35739586       0.00000000
Si      -1.35742071       1.35741312      -1.35729227       0.00000000
Si      -1.35836553      -1.35941679       1.35767209       0.00000000
Si       0.00131065      -2.71278999       2.71379035       0.00000000
Si       2.71274072      -0.00107514      -2.71479171       0.00000000
Si       0.00188205       2.71355918       2.71434283       0.00000000
Si       0.00078883       2.71441550      -2.71437736       0.00000000
Si       2.71461407       2.71496249       0.00017265       0.00000000
Si       2.71406021      -2.71554300      -0.00027624       0.00000000
