10
Lattice="16.28999089631971 0.0 0.0 0.0 16.28999089631971 0.0 0.0 0.0 34.529650657227435" Properties=species:S:1:pos:R:3:initial_magmoms:R:1 pbc="T T T"
Si       1.35547461       1.35615879      -1.35739586       0.00000000
Si      -1.35726611       1.35723393       1.35739586       0.00000000
Si       1.35679410      -1.35830907       1.35711962       0.00000000
Si      -1.35774996      -1.35910728      -1.35618732       0.00000000
Si      -2.71074464      -0.00247608      -2.71751956       0.00000000
Si      -0.00185217       2.71443528       2.71389394       0.00000000
Si       2.71340901      -0.00006516       2.71510248       0.00000000
Si      -2.71468682       2.71464705       0.00010359       0.00000000
Si      -2.71458908      -2.71497285      -0.00006906       0.00000000
Si      -0.00080961      -2.71336014      -2.71627649       0.00000000
