10
Lattice="16.28999089631971 0.0 0.0 0.0 16.28999089631971 0.0 0.0 0.0 34.529650657227435" Properties=species:S:1:pos:R:3:initial_magmoms:R:1 pbc="T T T"
Si       2.28216384       0.22652874      -0.23683901       0.00000000
Si      -1.27848318      -1.23761646      -1.55521633       0.00000000
Si      -0.16236243      -1.13472882       2.06981201       0.00000000
Si      -0.54147634       2.31291514       0.08466675       0.00000000
Si       2.30866767       1.36883241      -2.24018140       0.00000000
Si      -3.37777127       0.46845153       0.91075457       0.00000000
Si       2.74952394       1.36045935       1.78318122       0.00000000
Si      -2.74106033       2.17000949      -0.63227279       0.00000000
Si       1.38033315       0.16293258       3.34547613       0.00000000
Si      -3.24658790      -1.59207057      -0.30586382       0.00000000
