10
Lattice="16.28999089631971 0.0 0.0 0.0 16.28999089631971 0.0 0.0 0.0 34.48637585096406" Properties=species:S:1:pos:R:3:initial_magmoms:R:1 pbc="T T T"
Si      -1.34987804      -1.35294298      -1.38600822       0.00000000
Si       1.36124127       1.36532680      -1.38411147       0.00000000
Si       1.37435472      -1.32988465       1.50257224       0.00000000
Si      -1.55241161       1.21935211       1.43422020       0.00000000
Si       2.70721881      -2.67982947      -0.02396804       0.00000000
Si      -2.69588816      -2.73115926      -0.02383010       0.00000000
Si      -2.73034151       2.70091132      -0.01910546       0.00000000
Si       2.71841004       2.72145301       0.00020692       0.00000000
Si       0.00487397      -2.71034064      -2.74701380       0.00000000
Si      -2.71232477       0.00499940      -2.74756559       0.00000000
