10
Lattice="16.28999089631971 0.0 0.0 0.0 16.28999089631971 0.0 0.0 0.0 34.48637585096406" Properties=species:S:1:pos:R:3:initial_magmoms:R:1 pbc="T T T"
Si       1.11578355       1.56665491      -1.35597544       0.00000000
Si       1.33268490      -1.36900575       1.42124297       0.00000000
Si      -1.40551749       1.33624915       1.40080633       0.00000000
Si      -0.77302566      -1.71603162      -1.48202321       0.00000000
Si      -0.76216023       3.42736387      -1.37859851       0.00000000
Si       2.30536080      -0.31657660      -3.00621842       0.00000000
Si       2.70542691      -2.67639228       0.00961136       0.00000000
Si       2.72168433       2.70904003      -0.03677629       0.00000000
Si       2.68337025      -0.01998457       2.78371767       0.00000000
Si       1.01266785      -3.48038523      -1.35956202       0.00000000
