10
Lattice="16.28999089631971 0.0 0.0 0.0 16.28999089631971 0.0 0.0 0.0 34.48637585096406" Properties=species:S:1:pos:R:3:initial_magmoms:R:1 pbc="T T T"
Si      -0.08110791      -0.68719365       2.25575511       0.00000000
Si       1.37086866      -1.29373551      -1.42684011       0.00000000
Si       1.01623536       2.13014556       0.25375090       0.00000000
Si      -2.28415122       0.11862378      -0.74835477       0.00000000
Si       2.00538045      -1.72652497       2.25934169       0.00000000
Si      -1.88833680      -1.28697516      -2.69121482       0.00000000
Si      -0.78977178       3.23178939       1.18391794       0.00000000
Si      -2.77894368       2.23700796       0.34386385       0.00000000
Si       0.40674501      -0.92445750      -3.49205788       0.00000000
Si       3.51479556      -0.20605221       1.18443524       0.00000000
