10
Lattice="16.28999089631971 0.0 0.0 0.0 16.28999089631971 0.0 0.0 0.0 34.48637585096406" Properties=species:S:1:pos:R:3:initial_magmoms:R:1 pbc="T T T"
Si      -1.14699030      -1.73829843       1.24323454       0.00000000
Si      -1.37435472       1.32988465      -1.50257224       0.00000000
Si       1.33286409      -1.34994483      -1.52654028       0.00000000
Si       1.04749587       1.83731489       1.66793450       0.00000000
Si       2.64056013       2.71568798       0.05352289       0.00000000
Si      -2.75761097      -0.68940162       2.59917063       0.00000000
Si       2.90597310      -2.52192888      -0.27661538       0.00000000
Si      -2.92676633       2.54923676      -0.06835204       0.00000000
Si      -0.01311345       2.69521145      -2.88668370       0.00000000
Si       2.70096345      -0.02409494      -2.89030478       0.00000000
