10
Lattice="16.28999089631971 0.0 0.0 0.0 16.28999089631971 0.0 0.0 0.0 34.48637585096406" Properties=species:S:1:pos:R:3:initial_magmoms:R:1 pbc="T T T"
Si       1.35635427      -1.35381303       1.35941921       0.00000000
Si      -1.35765747      -1.35669636      -1.35710862       0.00000000
Si       1.35720135       1.35778779      -1.35731554       0.00000000
Si      -1.35791811       1.35682668       1.36235055       0.00000000
Si      -2.71376739      -2.71408016       0.00165535       0.00000000
Si       2.69752626       0.00128691       2.73090866       0.00000000
Si       2.71368594       2.71492398       0.00051730       0.00000000
Si      -0.00017919      -2.71452650      -2.71452762       0.00000000
Si       2.71510317       0.00055386      -2.71456211       0.00000000
Si       2.71450044      -2.71523023       0.00044832       0.00000000
