10
Lattice="16.28999089631971 0.0 0.0 0.0 16.28999089631971 0.0 0.0 0.0 34.48637585096406" Properties=species:S:1:pos:R:3:initial_magmoms:R:1 pbc="T T T"
Si       1.63279557       1.10369637       1.31624224       0.00000000
Si      -1.48480092      -1.15338087       1.46891351       0.00000000
Si       1.35879777      -1.32501231      -1.53119594       0.00000000
Si      -1.33115364       1.38259746      -1.52350548       0.00000000
Si      -2.09603430       0.74230272       2.76839537       0.00000000
Si       0.08542476       2.01626217       3.04990781       0.00000000
Si       3.43090206      -0.64847232       1.24571756       0.00000000
Si       2.71528236      -2.58559767      -0.08473307       0.00000000
Si      -2.75861376      -2.65963572       0.04138367       0.00000000
Si       2.70651834       2.71409319      -0.04738431       0.00000000
