10
Lattice="16.28999089631971 0.0 0.0 0.0 16.28999089631971 0.0 0.0 0.0 34.48637585096406" Properties=species:S:1:pos:R:3:initial_magmoms:R:1 pbc="T T T"
Si       0.01252701      -0.97492392       2.16891836       0.00000000
Si      -0.59632803      -1.62455283      -1.66545148       0.00000000
Si       2.16872028       1.14741873      -0.06362740       0.00000000
Si      -1.75759326       1.99645353      -0.36276239       0.00000000
Si       0.51567624       1.22359077       2.88813213       0.00000000
Si      -0.63949653       2.86203897       1.58351180       0.00000000
Si       1.49016033      -2.66388415      -1.66186489       0.00000000
Si       2.45558718       1.09709892      -2.34900632       0.00000000
Si      -3.55995144       0.43909695       0.17581164       0.00000000
Si       1.57903857       3.41016489       0.51419215       0.00000000
