10
Lattice="16.28999089631971 0.0 0.0 0.0 16.28999089631971 0.0 0.0 0.0 34.48637585096406" Properties=species:S:1:pos:R:3:initial_magmoms:R:1 pbc="T T T"
Si       0.16746120      -2.24899740       0.62899736       0.00000000
Si      -1.01346606      -0.25602993      -2.10194578       0.00000000
Si      -1.11837366       1.37986074       1.57020006       0.00000000
Si       1.80235818       1.55735658      -0.53857403       0.00000000
Si      -1.92777489       2.66512545      -0.20974626       0.00000000
Si      -2.85609312       1.14461685      -1.81253595       0.00000000
Si       3.55995144      -0.43909695      -0.17581164       0.00000000
Si       0.75227220       2.28336930       2.73142595       0.00000000
Si       0.19570806       3.57557355      -0.73556032       0.00000000
Si       0.94154571      -3.26297659      -1.39614722       0.00000000
