10
Lattice="16.28999089631971 0.0 0.0 0.0 16.28999089631971 0.0 0.0 0.0 34.48637585096406" Properties=species:S:1:pos:R:3:initial_magmoms:R:1 pbc="T T T"
Si      -0.91173501      -1.88102259       1.05004383       0.00000000
Si       1.54098513      -0.07167600      -1.77609008       0.00000000
Si       1.85042997       0.93649581       1.23902927       0.00000000
Si      -1.65848490       1.86500952      -0.06489926       0.00000000
Si       0.39242610       2.23943517       2.50716989       0.00000000
Si      -2.33455248      -0.51556221       2.49078885       0.00000000
Si      -1.40224320       2.22852087      -2.33904600       0.00000000
Si       0.72545886       1.61622864      -3.24248609       0.00000000
Si      -3.55666086       0.98438841       1.12438270       0.00000000
Si      -0.82903068       3.72312837       1.09918349       0.00000000
