10
Lattice="16.28999089631971 0.0 0.0 0.0 16.28999089631971 0.0 0.0 0.0 34.48637585096406" Properties=species:S:1:pos:R:3:initial_magmoms:R:1 pbc="T T T"
Si       0.78105663       0.78985323      -2.06273475       0.00000000
Si      -1.93192884      -1.21111263      -0.58085435       0.00000000
Si       2.07387990      -0.45885672       1.05242132       0.00000000
Si      -0.70196868       1.32382314       1.93641109       0.00000000
Si       1.59495390       1.23698115       2.63327767       0.00000000
Si       2.26483128       2.51135992      -1.34645232       0.00000000
Si      -2.70029556       0.08821035      -2.47757160       0.00000000
Si      -3.21255090      -1.08797652       1.42066705       0.00000000
Si       1.93404654      -2.42123157       2.30293249       0.00000000
Si      -1.29383325       3.50297621       0.99734655       0.00000000
