10
Lattice="16.28999089631971 0.0 0.0 0.0 16.28999089631971 0.0 0.0 0.0 34.48637585096406" Properties=species:S:1:pos:R:3:initial_magmoms:R:1 pbc="T T T"
Si       1.69275906       0.80399295       1.36917338       0.00000000
Si       1.23004161       0.51183180      -1.96196550       0.00000000
Si      -0.89516808      -1.82148264       1.37928824       0.00000000
Si      -1.78569351       1.76435361      -0.12246119       0.00000000
Si       0.32001705       2.11137948       2.78080499       0.00000000
Si       2.89440720       2.30113747       0.00306929       0.00000000
Si      -2.41429203      -0.60781248       2.75984416       0.00000000
Si      -0.50189490       0.61175466      -3.63621102       0.00000000
Si       1.29269295       3.16380863      -1.64665639       0.00000000
Si      -1.01266785       3.48038523       1.35956202       0.00000000
