10
Lattice="16.28999089631971 0.0 0.0 0.0 16.28999089631971 0.0 0.0 0.0 34.48637585096406" Properties=species:S:1:pos:R:3:initial_magmoms:R:1 pbc="T T T"
Si       1.34117199       1.35509994       1.37148945       0.00000000
Si      -1.35635427       1.35381303      -1.35941921       0.00000000
Si       1.35814617      -1.36141720      -1.35897089       0.00000000
Si      -1.35791811      -1.35478717       1.39387112       0.00000000
Si      -2.71427238       2.71063971       0.00293134       0.00000000
Si       2.71639008       2.71006956       0.00313826       0.00000000
Si       0.00084708       2.71160082      -2.71673475       0.00000000
Si      -2.71401174      -0.00288333      -2.71652783       0.00000000
Si       2.71572219      -0.00289962      -2.71666578       0.00000000
Si       2.71508688      -2.71786058       0.00006897       0.00000000
