10
Lattice="16.28999089631971 0.0 0.0 0.0 16.28999089631971 0.0 0.0 0.0 34.48637585096406" Properties=species:S:1:pos:R:3:initial_magmoms:R:1 pbc="T T T"
Si       0.14310765      -1.93310402      -1.30599978       0.00000000
Si       1.03040766       0.17900267       2.24251233       0.00000000
Si      -2.17903185       0.83274154      -1.13739580       0.00000000
Si       1.30272759       2.13860496       0.75711432       0.00000000
Si       2.77156431       0.66153364      -1.01121008       0.00000000
Si       1.52811603      -0.53625281      -2.61817263       0.00000000
Si      -0.87571782       3.17500734       0.91588968       0.00000000
Si      -2.86282089       1.79464161       0.91916589       0.00000000
Si       0.10678095      -3.51953825       0.47991267       0.00000000
Si      -1.19162979       2.40323601      -2.55506253       0.00000000
