10
Lattice="16.28999089631971 0.0 0.0 0.0 16.28999089631971 0.0 0.0 0.0 34.48637585096406" Properties=species:S:1:pos:R:3:initial_magmoms:R:1 pbc="T T T"
Si      -0.98740206      -1.57049446       1.41766673       0.00000000
Si      -1.35648459       1.26058536      -1.44646287       0.00000000
Si       0.71561970       1.93712535       1.33045064       0.00000000
Si       1.37751498      -1.45089980      -1.43470301       0.00000000
Si       0.31591197       0.77177133       3.47095221       0.00000000
Si       2.65678497       2.57085522      -0.05021219       0.00000000
Si       1.19162979      -2.40323601       2.55506253       0.00000000
Si      -2.71528236       2.58559767       0.08473307       0.00000000
Si      -2.59533909      -2.71637346       0.07749093       0.00000000
Si       0.01873350       2.61555498      -2.81481406       0.00000000
