10
Lattice="16.28999089631971 0.0 0.0 0.0 16.28999089631971 0.0 0.0 0.0 34.48637585096406" Properties=species:S:1:pos:R:3:initial_magmoms:R:1 pbc="T T T"
Si       1.86411357      -0.35248302       1.28672189       0.00000000
Si      -0.54398826       2.24051031       0.38776503       0.00000000
Si      -0.01203831      -0.23322393      -2.35700716       0.00000000
Si      -1.50941511      -1.52047276       1.07490645       0.00000000
Si      -2.49856020       2.33619777      -0.93068435       0.00000000
Si      -2.14392690      -1.08768330      -2.61127535       0.00000000
Si      -0.83085516       2.29083012       2.67314395       0.00000000
Si       1.43708751       1.14872193       3.16226449       0.00000000
Si       1.98894384      -2.76379561       1.38255958       0.00000000
Si      -3.51479556       0.20605221      -1.18443524       0.00000000
