10
Lattice="16.28999089631971 0.0 0.0 0.0 16.28999089631971 0.0 0.0 0.0 34.48637585096406" Properties=species:S:1:pos:R:3:initial_magmoms:R:1 pbc="T T T"
Si       0.58080366       1.02947913      -2.04597436       0.00000000
Si       1.91503611      -1.34350146       0.37976418       0.00000000
Si      -1.94448843      -1.36982610      -0.08276735       0.00000000
Si       0.81173070       1.10516247       2.16150379       0.00000000
Si       3.03350751       1.25483499      -1.62455062       0.00000000
Si      -1.68713901       2.17158732      -2.53509491       0.00000000
Si      -3.84333228       0.04924467      -0.30254914       0.00000000
Si       3.50430480      -1.04034456      -1.29951634       0.00000000
Si      -2.60571582      -2.10205508       2.12843133       0.00000000
Si      -2.05169292      -2.72063688      -2.04287059       0.00000000
