10
Lattice="16.28999089631971 0.0 0.0 0.0 16.28999089631971 0.0 0.0 0.0 34.48637585096406" Properties=species:S:1:pos:R:3:initial_magmoms:R:1 pbc="T T T"
Si      -1.60590078      -1.14238512      -1.31919915       0.00000000
Si       1.32157512      -1.36674729       1.45211519       0.00000000
Si      -1.37875302       1.34983827       1.44885623       0.00000000
Si       1.44057357       1.29308391      -1.57643317       0.00000000
Si      -2.68688889       2.67493203       0.00736285       0.00000000
Si       2.71435383       2.65197942      -0.06575866       0.00000000
Si      -3.48384456       0.71832384      -1.34182222       0.00000000
Si       2.75323806      -2.67359462       0.10790793       0.00000000
Si      -2.72168433      -2.70904003       0.03677629       0.00000000
Si       2.67620265      -0.01091430       2.81970078       0.00000000
