10
Lattice="16.28999089631971 0.0 0.0 0.0 16.28999089631971 0.0 0.0 0.0 34.48637585096406" Properties=species:S:1:pos:R:3:initial_magmoms:R:1 pbc="T T T"
Si      -1.34117199      -1.35509994      -1.37148945       0.00000000
Si       1.35648459      -1.26058536       1.44646287       0.00000000
Si       1.37521809       1.35496962      -1.36835119       0.00000000
Si      -1.35879777       1.32501231       1.53119594       0.00000000
Si       2.07210429       0.67653999       2.77691351       0.00000000
Si       0.27399780       2.42870868       2.84743819       0.00000000
Si      -2.68995141       2.70760977       0.00769047       0.00000000
Si      -2.69909010      -2.70988711       0.02238167       0.00000000
Si      -2.69752626      -0.00128691      -2.73090866       0.00000000
Si       0.01615968       2.71363707      -2.73039136       0.00000000
