10
Lattice="16.28999089631971 0.0 0.0 0.0 16.28999089631971 0.0 0.0 0.0 34.48637585096406" Properties=species:S:1:pos:R:3:initial_magmoms:R:1 pbc="T T T"
Si      -0.71561970      -1.93712535      -1.33045064       0.00000000
Si       1.94116527       0.63372987      -1.38066283       0.00000000
Si      -0.39970773      -1.16535402       2.14050157       0.00000000
Si      -1.79810649       1.75216869       0.07052468       0.00000000
Si       1.77873768      -2.20175640       1.98172621       0.00000000
Si       0.65796939       2.05281693      -2.77715491       0.00000000
Si      -2.07210429      -0.67653999      -2.77691351       0.00000000
Si      -0.72438372       3.36256551      -1.29310187       0.00000000
Si      -3.43090206       0.64847232      -1.24571756       0.00000000
Si      -1.70302176      -3.50761981       0.08721609       0.00000000
