10
Lattice="16.28999089631971 0.0 0.0 0.0 16.28999089631971 0.0 0.0 0.0 34.48637585096406" Properties=species:S:1:pos:R:3:initial_magmoms:R:1 pbc="T T T"
Si      -0.97091658       1.96266807       0.84753765       0.00000000
Si      -1.88753859      -1.19741274      -1.01490012       0.00000000
Si       0.70382574      -1.22852664       2.08987554       0.00000000
Si       1.15618275       1.30026780      -2.06304513       0.00000000
Si       2.26437516      -2.34000963       0.72993904       0.00000000
Si      -0.82417626       0.98916138      -3.38884010       0.00000000
Si       1.31973435       3.04880382       1.49964089       0.00000000
Si       1.70096922       3.30838497      -0.86919510       0.00000000
Si      -3.04271136       0.44103546      -2.31952045       0.00000000
Si       1.45264446      -3.44517210      -1.43156475       0.00000000
