10
Lattice="16.28999089631971 0.0 0.0 0.0 16.28999089631971 0.0 0.0 0.0 34.48637585096406" Properties=species:S:1:pos:R:3:initial_magmoms:R:1 pbc="T T T"
Si      -1.26982179       1.46554614      -1.26037083       0.00000000
Si      -1.38318390      -1.32579423       1.36667170       0.00000000
Si       1.32882417       1.39194792       1.36218847       0.00000000
Si       1.36925595      -1.37492487      -1.52247778       0.00000000
Si       2.70485676      -2.68975593      -0.01991589       0.00000000
Si      -2.72385090      -2.67706602      -0.00786290       0.00000000
Si      -0.02349018      -2.68032402       2.72322854       0.00000000
Si       2.69298135       0.03354111       2.72164216       0.00000000
Si      -2.73779514       0.03473028       2.72167665       0.00000000
Si       2.70337437       2.75923278      -0.02139881       0.00000000
