10
Lattice="16.28999089631971 0.0 0.0 0.0 16.28999089631971 0.0 0.0 0.0 34.48637585096406" Properties=species:S:1:pos:R:3:initial_magmoms:R:1 pbc="T T T"
Si       1.34315937       1.33762077       1.38260441       0.00000000
Si      -1.37284138      -1.37657016       1.37622443       0.00000000
Si      -1.36693625       1.41335298      -1.39454360       0.00000000
Si       1.35127179      -1.31048163      -1.51478732       0.00000000
Si      -0.66385008      -2.27695104      -2.68331043       0.00000000
Si      -2.37165458      -0.31965867      -2.68572279       0.00000000
Si       2.70141957       2.67652845       0.00808016       0.00000000
Si       2.68392411      -2.73665484      -0.00244509       0.00000000
Si      -0.01122381       2.69535969       2.73905779       0.00000000
Si      -2.74692780       2.69000028       0.01761565       0.00000000
