10
Lattice="16.28999089631971 0.0 0.0 0.0 16.28999089631971 0.0 0.0 0.0 34.48637585096406" Properties=species:S:1:pos:R:3:initial_magmoms:R:1 pbc="T T T"
Si       1.35606105      -1.35953082      -1.36097110       0.00000000
Si      -1.35920502       1.35891180      -1.36038483       0.00000000
Si       1.35736425       1.34895861       1.37345517       0.00000000
Si      -1.36853919      -1.36001952       1.38324931       0.00000000
Si      -0.11733687       2.65681755       2.71435519       0.00000000
Si       2.71580364       2.71406061      -0.00113805       0.00000000
Si       2.71515204      -2.71471221      -0.00613858       0.00000000
Si      -2.71554300      -2.71503801       0.00051730       0.00000000
Si      -2.71652040       2.71419093      -0.00437977       0.00000000
Si       2.71324611      -0.00050499      -2.71763139       0.00000000
