10
Lattice="16.28999089631971 0.0 0.0 0.0 16.28999089631971 0.0 0.0 0.0 34.48637585096406" Properties=species:S:1:pos:R:3:initial_magmoms:R:1 pbc="T T T"
Si      -1.85274315       0.91597041      -0.99672579       0.00000000
Si       0.08656506      -2.35333485      -0.07800823       0.00000000
Si       0.49099689       0.93480165       2.12143060       0.00000000
Si       1.90483857       0.21885615      -1.40718287       0.00000000
Si       2.05879536      -2.08834542       1.25602900       0.00000000
Si       3.52276137      -0.49296798       0.12463383       0.00000000
Si       1.25788122      -1.01361267       3.22313297       0.00000000
Si      -1.22223870       2.99564955      -1.87043861       0.00000000
Si       1.48600638      -1.21526658      -3.22447794       0.00000000
Si      -2.34776367      -0.25321176      -2.92830878       0.00000000
