10
Lattice="16.28999089631971 0.0 0.0 0.0 16.28999089631971 0.0 0.0 0.0 34.48637585096406" Properties=species:S:1:pos:R:3:initial_magmoms:R:1 pbc="T T T"
Si       0.97091658      -1.96266807      -0.84753765       0.00000000
Si      -1.54098513       0.07167600       1.77609008       0.00000000
Si      -0.81552627       1.68790464      -1.46639601       0.00000000
Si       2.29065093       1.08613575       0.65210325       0.00000000
Si       0.30944484       1.00817181       3.01511936       0.00000000
Si       2.67188580       1.34571690      -1.71673275       0.00000000
Si       2.12709933      -0.66240027      -2.91058278       0.00000000
Si      -2.94322833       2.30019687      -0.56295591       0.00000000
Si      -0.91662201      -3.16008081      -1.86243777       0.00000000
Si       1.67474232      -3.19119471       1.24233790       0.00000000
