10
Lattice="16.28999089631971 0.0 0.0 0.0 16.28999089631971 0.0 0.0 0.0 34.48637585096406" Properties=species:S:1:pos:R:3:initial_magmoms:R:1 pbc="T T T"
Si      -1.33952362      -1.35136953       1.36309201       0.00000000
Si       1.37999155      -1.27664730      -1.41215925       0.00000000
Si       1.37483576       1.36401057       1.35543603       0.00000000
Si      -1.40069257       1.24861221      -1.45944355       0.00000000
Si       2.24944749       0.72042525      -2.53295192       0.00000000
Si       0.37967478       2.19300867      -2.66506654       0.00000000
Si      -2.68198252      -2.71671588      -0.02084013       0.00000000
Si      -2.69385793       0.00658116       2.72071793       0.00000000
Si      -2.68346491       2.73227283      -0.02232304       0.00000000
Si       0.01714016      -2.70798444       2.72189046       0.00000000
