10
Lattice="16.28999089631971 0.0 0.0 0.0 16.28999089631971 0.0 0.0 0.0 34.48637585096406" Properties=species:S:1:pos:R:3:initial_magmoms:R:1 pbc="T T T"
Si      -1.34539110      -1.34607528       1.34565914       0.00000000
Si       1.35731538      -1.35527913      -1.35600506       0.00000000
Si      -1.35694071       1.35695700      -1.35672927       0.00000000
Si       1.34605899       1.37241621       1.36993756       0.00000000
Si      -2.51208090       0.21659184       2.61700009       0.00000000
Si       2.59918353      -0.05737338       2.71873496       0.00000000
Si      -0.00048870      -2.71388142      -2.71335508       0.00000000
Si       2.71476108       0.00050499      -2.71342405       0.00000000
Si      -2.71513575       0.00105885      -2.71363097       0.00000000
Si      -0.00024435       2.71556298      -2.71363097       0.00000000
