10
Lattice="16.28999089631971 0.0 0.0 0.0 16.28999089631971 0.0 0.0 0.0 34.48637585096406" Properties=species:S:1:pos:R:3:initial_magmoms:R:1 pbc="T T T"
Si       0.13983336       1.96237485      -1.25051117       0.00000000
Si       2.22158133      -0.38260323       0.69286616       0.00000000
Si      -1.04969502       0.06033816       2.15915871       0.00000000
Si      -0.54242442      -2.06983998      -1.17908985       0.00000000
Si       1.59107688      -2.46228237       1.56657898       0.00000000
Si      -0.53827047      -2.23919082       2.56702931       0.00000000
Si      -0.33909264       3.65821272       0.33034518       0.00000000
Si       1.09605636      -3.63146454      -0.36500401       0.00000000
Si      -1.93404654       2.42123157      -2.30293249       0.00000000
Si       2.13732945       2.13972408      -2.53540528       0.00000000
