10
Lattice="16.28999089631971 0.0 0.0 0.0 16.28999089631971 0.0 0.0 0.0 34.48637585096406" Properties=species:S:1:pos:R:3:initial_magmoms:R:1 pbc="T T T"
Si       1.35785295       1.34392663      -1.34466593       0.00000000
Si       1.35435824      -1.35745281       1.35621197       0.00000000
Si      -1.36037790       1.35629074       1.35683273       0.00000000
Si      -1.35948195      -1.36920553      -1.35212879       0.00000000
Si      -2.64230316       0.05255480      -2.71506906       0.00000000
Si       2.69315632      -0.01656856      -2.67011259       0.00000000
Si       2.71048237       2.71344322      -0.00672485       0.00000000
Si       2.71236875      -0.00109143       2.71338957       0.00000000
Si      -0.00190593       2.71358983       2.71311368       0.00000000
Si      -0.00216657      -2.71603726       2.71328611       0.00000000
