10
Lattice="16.28999089631971 0.0 0.0 0.0 16.28999089631971 0.0 0.0 0.0 34.48637585096406" Properties=species:S:1:pos:R:3:initial_magmoms:R:1 pbc="T T T"
Si      -1.35723052      -1.35682668      -1.35700516       0.00000000
Si       1.35763955       1.35827649      -1.35707413       0.00000000
Si       1.35671102      -1.35338949       1.36331617       0.00000000
Si      -1.35620019       1.35951453       1.36345412       0.00000000
Si      -0.00005539      -2.71394821      -2.71438967       0.00000000
Si      -2.71433007       0.00073305      -2.71466556       0.00000000
Si       2.71521557       0.00099369      -2.71466556       0.00000000
Si       2.71650248      -2.71365662       0.00168983       0.00000000
Si      -2.71685502      -2.71371689      -0.00013795       0.00000000
Si      -0.00021991       2.71598283      -2.71473454       0.00000000
