10
Lattice="16.28999089631971 0.0 0.0 0.0 16.28999089631971 0.0 0.0 0.0 34.48637585096406" Properties=species:S:1:pos:R:3:initial_magmoms:R:1 pbc="T T T"
Si      -2.20947786       0.95851989       0.42025121       0.00000000
Si       0.01000206      -1.35715248      -2.21281954       0.00000000
Si       0.90165150      -0.97813305       2.27268793       0.00000000
Si       2.07054045       1.87206309      -0.06279973       0.00000000
Si      -2.16844335      -0.32075010      -2.05404418       0.00000000
Si      -0.26231787      -3.31675477      -0.72742153       0.00000000
Si      -0.96352092      -2.40480962       2.63172578       0.00000000
Si      -2.39247972       1.05645537       2.86850937       0.00000000
Si       2.90994786      -2.05671024       1.63296530       0.00000000
Si      -2.21242635       3.33611055       0.08028433       0.00000000
