10
Lattice="16.28999089631971 0.0 0.0 0.0 16.28999089631971 0.0 0.0 0.0 34.48637585096406" Properties=species:S:1:pos:R:3:initial_magmoms:R:1 pbc="T T T"
Si      -1.41579063       1.22249934       1.39111221       0.00000000
Si       1.34094067       1.36190916      -1.36707519       0.00000000
Si      -1.37053701      -1.35466011      -1.35914332       0.00000000
Si       1.29211954      -1.32805854       1.48977778       0.00000000
Si      -2.33420454      -0.63143298       2.76553300       0.00000000
Si      -0.60630566      -2.43584370       2.69883631       0.00000000
Si       2.67502651       2.71927341      -0.01258753       0.00000000
Si       2.69954296      -2.71143792       0.02503712       0.00000000
Si       2.70016198       0.00278559      -2.72239052       0.00000000
Si      -2.73510144       2.69169444      -0.00327621       0.00000000
