10
Lattice="16.28999089631971 0.0 0.0 0.0 16.28999089631971 0.0 0.0 0.0 34.48637585096406" Properties=species:S:1:pos:R:3:initial_magmoms:R:1 pbc="T T T"
Si      -1.58926869      -0.30315690       1.67928052       0.00000000
Si      -0.47079729       2.29517955      -0.32503427       0.00000000
Si      -0.12711087      -1.53105312      -1.81270839       0.00000000
Si       1.81456983      -0.88320308       1.25706359       0.00000000
Si      -1.37404521      -2.58307991       2.18485108       0.00000000
Si      -2.92350114       2.06982369      -0.74645802       0.00000000
Si      -2.49647508       0.56861874      -2.62200062       0.00000000
Si       2.08464826       0.78674184       2.93655103       0.00000000
Si       0.01225008      -0.28773027       3.68352635       0.00000000
Si       0.93612114      -3.02945849       1.92278896       0.00000000
