10
Lattice="16.28999089631971 0.0 0.0 0.0 16.28999089631971 0.0 0.0 0.0 34.48637585096406" Properties=species:S:1:pos:R:3:initial_magmoms:R:1 pbc="T T T"
Si       1.35544203       1.35843939      -1.35655684       0.00000000
Si      -1.35847197      -1.35729909      -1.35628095       0.00000000
Si       1.35709955      -1.35755973       1.35766040       0.00000000
Si      -1.35814617       1.35742941       1.35769489       0.00000000
Si       0.00190593      -2.71358983      -2.71311368       0.00000000
Si       2.71427468      -2.71468126       0.00027589       0.00000000
Si      -0.00252495      -2.71444994       2.71452762       0.00000000
Si       2.71433007      -0.00073305       2.71466556       0.00000000
Si       2.71411015       2.71524978      -0.00006897       0.00000000
Si      -2.71555929      -0.00219915       2.71463108       0.00000000
