10
Lattice="16.28999089631971 0.0 0.0 0.0 16.28999089631971 0.0 0.0 0.0 34.48637585096406" Properties=species:S:1:pos:R:3:initial_magmoms:R:1 pbc="T T T"
Si      -1.33703433      -1.33708320      -1.37290339       0.00000000
Si       1.37867157       1.37731950      -1.36486806       0.00000000
Si       1.17792990      -1.48155921       1.45332566       0.00000000
Si      -1.41405345       1.32978528       1.39887165       0.00000000
Si       2.14290293       0.29613591       2.69311157       0.00000000
Si       0.41500404       2.10054663       2.75980826       0.00000000
Si      -2.69332344      -2.69196974       0.01438083       0.00000000
Si      -2.69501760       0.01633887      -2.72835666       0.00000000
Si       0.01801674      -2.69591192      -2.72846012       0.00000000
Si       2.73034151      -2.70091132       0.01910546       0.00000000
