10
Lattice="16.28999089631971 0.0 0.0 0.0 16.28999089631971 0.0 0.0 0.0 34.48637585096406" Properties=species:S:1:pos:R:3:initial_magmoms:R:1 pbc="T T T"
Si       0.82582155       1.89887643      -1.01089970       0.00000000
Si       1.79279595      -1.49301108       0.13987682       0.00000000
Si      -0.57361977       0.76080816       2.13557002       0.00000000
Si      -1.86772995      -0.87285078      -1.13825796       0.00000000
Si      -1.08141165       2.71039536      -2.07377040       0.00000000
Si      -1.94079060      -3.02568831      -0.13666958       0.00000000
Si      -2.47274055      -0.55195407       2.60810260       0.00000000
Si       1.24465374       3.33299916       0.80639538       0.00000000
Si       1.42640127      -2.90743920      -1.73407941       0.00000000
Si       2.82921462       1.28691000      -2.05028516       0.00000000
