10
Lattice="16.28999089631971 0.0 0.0 0.0 16.28999089631971 0.0 0.0 0.0 34.48637585096406" Properties=species:S:1:pos:R:3:initial_magmoms:R:1 pbc="T T T"
Si      -1.34967537      -1.33190298      -1.36469563       0.00000000
Si      -1.40486589       1.22821713       1.40787259       0.00000000
Si       1.36684503       1.38189699      -1.36007445       0.00000000
Si       1.31931081      -1.46919510       1.39438841       0.00000000
Si       0.42821523       2.03090688       2.64693428       0.00000000
Si       2.24654317       0.32845527       2.62672526       0.00000000
Si      -2.71135647      -2.67480171       0.01138051       0.00000000
Si       0.00314397      -2.68970706      -2.71904534       0.00000000
Si       2.73510144      -2.69169444       0.00327621       0.00000000
Si      -2.70876636       0.02327841      -2.71952815       0.00000000
