10
Lattice="16.28999089631971 0.0 0.0 0.0 16.28999089631971 0.0 0.0 0.0 34.48637585096406" Properties=species:S:1:pos:R:3:initial_magmoms:R:1 pbc="T T T"
Si       0.56493720       2.15829468      -0.59789063       0.00000000
Si       1.61792280      -0.71182413       1.53181670       0.00000000
Si      -0.41883219      -1.43412273      -1.81729508       0.00000000
Si      -1.90483857      -0.21885615       1.40718287       0.00000000
Si      -1.81827351      -2.57219100       1.32917464       0.00000000
Si       0.15395679      -2.30720157       2.66321186       0.00000000
Si      -1.27780389       2.78270667      -1.96086194       0.00000000
Si      -1.24465374      -3.33299916      -0.80639538       0.00000000
Si       0.07470594       3.39819174       1.38111115       0.00000000
Si      -2.32606539      -0.62260380      -2.88016578       0.00000000
