10
Lattice="16.28999089631971 0.0 0.0 0.0 16.28999089631971 0.0 0.0 0.0 34.48637585096406" Properties=species:S:1:pos:R:3:initial_magmoms:R:1 pbc="T T T"
Si      -1.35643572      -1.35773892       1.35979856       0.00000000
Si       1.35868374       1.35806472       1.35952267       0.00000000
Si      -1.36516716       1.36614456      -1.35172874       0.00000000
Si       1.36894644      -1.36673100      -1.35321166       0.00000000
Si       0.00136836       2.70489644      -2.70589223       0.00000000
Si      -2.71425609      -2.71275741       0.00179329       0.00000000
Si       2.71483891      -2.71319724       0.00479361       0.00000000
Si      -2.71412577       2.71474156       0.00472464       0.00000000
Si      -2.71407690       0.00034209       2.71697615       0.00000000
Si       2.71520855       2.71664916       0.00244853       0.00000000
