10
Lattice="16.28999089631971 0.0 0.0 0.0 16.28999089631971 0.0 0.0 0.0 34.48637585096406" Properties=species:S:1:pos:R:3:initial_magmoms:R:1 pbc="T T T"
Si      -1.35736425      -1.35742941      -1.35810873       0.00000000
Si       1.35764118       1.35743231      -1.35797078       0.00000000
Si      -1.35829278       1.35793718       1.35845359       0.00000000
Si       1.36019871      -1.35806472       1.35855705       0.00000000
Si      -2.71480995      -2.71321353      -0.00068973       0.00000000
Si       2.71313208       2.71547037      -0.00120702       0.00000000
Si       2.71384884      -2.71559187      -0.00006897       0.00000000
Si      -2.71523349       2.71438056      -0.00058627       0.00000000
Si      -0.00094482       2.71487578      -2.71476902       0.00000000
Si      -2.71513575       0.00133578      -2.71511389       0.00000000
