10
Lattice="16.28999089631971 0.0 0.0 0.0 16.28999089631971 0.0 0.0 0.0 34.48637585096406" Properties=species:S:1:pos:R:3:initial_magmoms:R:1 pbc="T T T"
Si       1.39810132      -1.19404071      -1.45636047       0.00000000
Si       1.62425539       1.15913124       1.32376028       0.00000000
Si      -0.89112816      -1.90718433       1.19678137       0.00000000
Si      -1.29899718       1.49615505      -1.44587660       0.00000000
Si       0.01363473       2.20802805       2.67969636       0.00000000
Si       2.71701629      -2.53754217      -0.05997184       0.00000000
Si       0.04750164      -2.55619422      -2.81022737       0.00000000
Si      -2.68454313       2.74766688      -0.05517823       0.00000000
Si      -2.72420928      -2.70987408      -0.04228032       0.00000000
Si      -2.66836716       0.15877863      -2.80984802       0.00000000
