10
Lattice="16.28999089631971 0.0 0.0 0.0 16.28999089631971 0.0 0.0 0.0 34.48637585096406" Properties=species:S:1:pos:R:3:initial_magmoms:R:1 pbc="T T T"
Si      -1.47787767      -1.59765804      -0.76680500       0.00000000
Si      -0.70897338       0.63561951       2.15588250       0.00000000
Si       1.50392279      -1.70922825       0.94078886       0.00000000
Si       0.64070199       2.01111453      -1.29020501       0.00000000
Si       1.17552942      -0.53341605       2.98665976       0.00000000
Si      -0.30929823       2.93778325       1.63858658       0.00000000
Si      -0.26406090      -2.10409785      -2.77312000       0.00000000
Si       2.25132265       0.96221772      -2.64614110       0.00000000
Si      -3.47881095      -0.43253208      -0.92699430       0.00000000
Si       1.54309861       3.58963738       0.17660483       0.00000000
