10
Lattice="16.28999089631971 0.0 0.0 0.0 16.28999089631971 0.0 0.0 0.0 34.48637585096406" Properties=species:S:1:pos:R:3:initial_magmoms:R:1 pbc="T T T"
Si      -1.86977272       1.47258342      -0.13211462       0.00000000
Si       0.50762898       0.22524183      -2.34518113       0.00000000
Si       1.97679150       0.76605354       1.15701028       0.00000000
Si      -0.86945594      -1.99707255       1.12079267       0.00000000
Si       0.49669839       2.02738824       2.51857454       0.00000000
Si      -2.24944749      -0.72042525       2.53295192       0.00000000
Si      -0.73439393       3.41339031       0.92879311       0.00000000
Si      -2.61696311       1.30937391      -2.48709264       0.00000000
Si      -3.65014007       0.52818696       1.07350837       0.00000000
Si      -0.87461173       0.64358532       3.88838795       0.00000000
