10
Lattice="16.28999089631971 0.0 0.0 0.0 16.28999089631971 0.0 0.0 0.0 34.48637585096406" Properties=species:S:1:pos:R:3:initial_magmoms:R:1 pbc="T T T"
Si       1.33408584       1.35736425       1.35448765       0.00000000
Si      -1.35541434       1.35264015      -1.35590160       0.00000000
Si      -1.34094067      -1.36190916       1.36707519       0.00000000
Si       1.35922131      -1.35912357      -1.35531533       0.00000000
Si       2.59452459      -0.04987998       2.68945601       0.00000000
Si      -2.70919709       2.71168227       0.00372453       0.00000000
Si       0.00195480       2.71223613      -2.71249292       0.00000000
Si      -2.71261219      -0.00286704      -2.71259638       0.00000000
Si      -2.71147769      -2.71656927       0.00793187       0.00000000
Si       2.71503801       2.71327869       0.00634550       0.00000000
