10
Lattice="16.28999089631971 0.0 0.0 0.0 16.28999089631971 0.0 0.0 0.0 34.48637585096406" Properties=species:S:1:pos:R:3:initial_magmoms:R:1 pbc="T T T"
Si       0.79211754      -0.28657368       2.22275162       0.00000000
Si       0.69564816       2.21244264      -0.61592702       0.00000000
Si       1.23719292      -1.38574143      -1.54436975       0.00000000
Si      -2.39431723      -0.09189189      -0.31806802       0.00000000
Si      -1.63272552       1.93974804       1.77698048       0.00000000
Si      -2.35059487       1.63129689      -1.96706949       0.00000000
Si      -1.06044642       0.41650272       3.50061051       0.00000000
Si      -2.47475562      -2.21092767      -1.64596667       0.00000000
Si      -0.35950401      -3.06548478      -2.16002087       0.00000000
Si       2.48676624       1.39983228       2.52392131       0.00000000
