10
Lattice="16.28999089631971 0.0 0.0 0.0 16.28999089631971 0.0 0.0 0.0 34.48637585096406" Properties=species:S:1:pos:R:3:initial_magmoms:R:1 pbc="T T T"
Si       1.85256396      -0.70307640      -1.27785888       0.00000000
Si      -0.57227910       1.52324532      -1.72363003       0.00000000
Si       1.03721688       1.22756553       1.74304587       0.00000000
Si      -1.62026204      -1.59500277       0.85167601       0.00000000
Si      -2.43933695       2.43020736      -0.70762634       0.00000000
Si       0.80733240       3.39027480      -1.02697036       0.00000000
Si       1.06044642      -0.41650272      -3.50061051       0.00000000
Si       3.54721266       0.98332956      -0.97668920       0.00000000
Si      -1.74032439       3.07722987       1.48470828       0.00000000
Si       0.54812592       3.54900456       1.37045486       0.00000000
