10
Lattice="16.28999089631971 0.0 0.0 0.0 16.28999089631971 0.0 0.0 0.0 34.48637585096406" Properties=species:S:1:pos:R:3:initial_magmoms:R:1 pbc="T T T"
Si       1.35770308       1.35741114      -1.35697068       0.00000000
Si      -1.35732663      -1.35809730      -1.35703965       0.00000000
Si      -1.35475200       1.35739767       1.36100558       0.00000000
Si       1.35607408      -1.36052451       1.36024688       0.00000000
Si      -0.00366362      -2.71101438       2.71269984       0.00000000
Si      -2.70076212      -0.02081862       2.72318370       0.00000000
Si       2.70234484       0.03051117       2.72304576       0.00000000
Si       2.71457863      -2.71515204      -0.00031038       0.00000000
Si      -2.71493442       0.00016290      -2.71490697       0.00000000
Si      -0.00039910       2.71510873      -2.71480351       0.00000000
