10
Lattice="16.28999089631971 0.0 0.0 0.0 16.28999089631971 0.0 0.0 0.0 34.48637585096406" Properties=species:S:1:pos:R:3:initial_magmoms:R:1 pbc="T T T"
Si      -1.46461761       1.48825540       1.15550116       0.00000000
Si       1.74935052       1.31343012      -0.99924330       0.00000000
Si       0.76836672      -1.29932298       1.89671725       0.00000000
Si      -0.84716145      -1.58931756      -1.70138630       0.00000000
Si       3.48135219       0.70164288       0.41483685       0.00000000
Si       0.56265660      -3.46766859       1.04345486       0.00000000
Si       2.70029556      -0.08821035       2.47757160       0.00000000
Si       1.10835531       3.51279908      -0.51557161       0.00000000
Si      -2.24446878       0.17482428       3.05559807       0.00000000
Si      -1.20752883      -3.62390598      -0.48132662       0.00000000
