10
Lattice="16.28999089631971 0.0 0.0 0.0 16.28999089631971 0.0 0.0 0.0 34.48637585096406" Properties=species:S:1:pos:R:3:initial_magmoms:R:1 pbc="T T T"
Si      -2.28845031      -0.47177469       0.11425343       0.00000000
Si       0.48909096      -2.32143903       0.37259101       0.00000000
Si       0.25920648      -0.15872976      -2.39742522       0.00000000
Si       0.31043853       1.71057610       1.76956591       0.00000000
Si       3.16314333       0.14450859       0.63789485       0.00000000
Si       1.89641664       0.26989272       2.77236130       0.00000000
Si       2.78327682      -2.10944097      -0.04359080       0.00000000
Si      -2.35400993      -1.66684167       2.15305462       0.00000000
Si      -0.54415116       1.97321814      -2.96707149       0.00000000
Si       2.91183750       2.23834278      -0.51822706       0.00000000
