10
Lattice="10.86 0.0 0.0 0.0 10.86 0.0 0.0 0.0 10.86" Properties=species:S:1:pos:R:3:initial_magmoms:R:1 pbc="T T T"
Si      -1.31016126      -1.41494940       1.25141952       0.00000000
Si      -1.31016126       1.30005060      -1.46358048       0.00000000
Si       1.40483874      -1.41494940      -1.46358048       0.00000000
Si       2.71435926       2.46596934       0.04870710       0.00000000
Si       2.78172384       0.23561856       2.48389920       0.00000000
Si       0.04733874      -2.77244940       2.60891952       0.00000000
Si      -2.66766126      -2.77244940      -0.10608048       0.00000000
Si       0.04733874       2.65755060      -2.82108048       0.00000000
Si      -2.66766126      -0.05744940      -2.82108048       0.00000000
Si       2.76233874      -2.77244940      -0.10608048       0.00000000
