10
Lattice="10.86 0.0 0.0 0.0 10.86 0.0 0.0 0.0 10.86" Properties=species:S:1:pos:R:3:initial_magmoms:R:1 pbc="T T T"
Si      -1.24357860      -1.27278114       1.21601592       0.00000000
Si      -0.82415454       1.25999892      -1.61905224       0.00000000
Si       1.47142140       1.44221886       1.21601592       0.00000000
Si       1.47142140      -1.27278114      -1.49898408       0.00000000
Si      -2.46830424       2.67600174      -0.10666692       0.00000000
Si      -2.60107860       0.08471886       2.57351592       0.00000000
Si       0.11392140      -2.63028114       2.57351592       0.00000000
Si      -2.60107860      -2.63028114      -0.14148408       0.00000000
Si      -2.55187194       0.18663996      -2.78397186       0.00000000
Si       0.11392140       2.79971886       2.57351592       0.00000000
