10
Lattice="16.28999089631971 0.0 0.0 0.0 16.28999089631971 0.0 0.0 0.0 34.529650657227435" Properties=species:S:1:pos:R:3:initial_magmoms:R:1 pbc="T T T"
Si      -1.35760860      -1.35728193       1.35770662       0.00000000
Si       1.35796698       1.35781213       1.35819004       0.00000000
Si      -1.35811359       1.35818355      -1.36033088       0.00000000
Si       1.35729909      -1.35834078      -1.36216095       0.00000000
Si       2.71484253      -2.71407603       0.00027624       0.00000000
Si       2.71396287       2.71561621       0.00096683       0.00000000
Si      -0.00014661      -2.71419006       2.71548230       0.00000000
Si       2.71487511       0.00014976       2.71496436       0.00000000
Si       0.00104256       2.71558363       2.71465359       0.00000000
Si      -2.71513575      -0.00003235       2.71534419       0.00000000
