10
Lattice="16.28999089631971 0.0 0.0 0.0 16.28999089631971 0.0 0.0 0.0 34.529650657227435" Properties=species:S:1:pos:R:3:initial_magmoms:R:1 pbc="T T T"
Si       0.56150001      -2.03477250      -0.92984948       0.00000000
Si       1.57134969       0.69963921       1.61850922       0.00000000
Si       0.19994346       1.74993696      -1.57662473       0.00000000
Si      -1.40199885      -0.12230532       1.90223952       0.00000000
Si      -0.28123056       1.85999220       2.82045250       0.00000000
Si      -0.02539611      -1.65919026      -3.13228995       0.00000000
Si       2.94765921      -1.67421452      -1.21192236       0.00000000
Si      -0.35147304      -2.07093304       3.09845087       0.00000000
Si       0.58560921       3.76227324      -0.44339549       0.00000000
Si       1.83668121      -1.02597678       3.30038038       0.00000000
