10
Lattice="16.28999089631971 0.0 0.0 0.0 16.28999089631971 0.0 0.0 0.0 34.529650657227435" Properties=species:S:1:pos:R:3:initial_magmoms:R:1 pbc="T T T"
Si      -1.35264015      -1.34475579      -1.36536530       0.00000000
Si      -1.35436689       1.35755973       1.35819004       0.00000000
Si       1.35795069      -1.35619137       1.35856986       0.00000000
Si       1.36409202       1.34356662      -1.38999532       0.00000000
Si       0.03678282      -2.58006233      -2.78006315       0.00000000
Si      -2.71412577      -2.71362404      -0.00272784       0.00000000
Si      -2.71298547       0.00076563       2.71524060       0.00000000
Si       0.00195480      -2.71399545       2.71579307       0.00000000
Si      -2.71388142       2.71717200      -0.00552475       0.00000000
Si       0.00167787       2.71583622       2.71575854       0.00000000
