10
Lattice="16.28999089631971 0.0 0.0 0.0 16.28999089631971 0.0 0.0 0.0 34.529650657227435" Properties=species:S:1:pos:R:3:initial_magmoms:R:1 pbc="T T T"
Si      -1.36849032       1.21803588      -1.46501102       0.00000000
Si       1.34198649       1.36505313       1.36692259       0.00000000
Si      -1.37583711      -1.35057132       1.35784129       0.00000000
Si       1.25491644      -1.44603072      -1.45105759       0.00000000
Si      -2.18470077      -0.70797969      -2.65271220       0.00000000
Si      -0.41067090      -2.31743169      -2.94284434       0.00000000
Si       2.68838757       2.68985367      -0.01099425       0.00000000
Si       2.69485470       0.00588069       2.72221214       0.00000000
Si       2.70213633      -2.72417670      -0.02662928       0.00000000
Si      -0.01632258      -2.71018359       2.72155607       0.00000000
