10
Lattice="16.28999089631971 0.0 0.0 0.0 16.28999089631971 0.0 0.0 0.0 34.529650657227435" Properties=species:S:1:pos:R:3:initial_magmoms:R:1 pbc="T T T"
Si      -2.19954163      -0.14411437      -0.71569647       0.00000000
Si       0.54111145      -2.31357815      -0.08352727       0.00000000
Si       1.60494619       0.92321294      -1.56008502       0.00000000
Si      -0.24227140       0.80435785       2.28645116       0.00000000
Si      -2.83661095      -1.84563161       0.82708918       0.00000000
Si       2.82363367      -2.08664216      -0.32067704       0.00000000
Si       2.85025153      -0.94495751      -2.32477909       0.00000000
Si       3.29066797      -0.95305364       1.69906694       0.00000000
Si       1.38447733       2.43436131       2.68737515       0.00000000
Si      -3.36448840       1.89521118      -0.59201119       0.00000000
