10
Lattice="16.28999089631971 0.0 0.0 0.0 16.28999089631971 0.0 0.0 0.0 34.529650657227435" Properties=species:S:1:pos:R:3:initial_magmoms:R:1 pbc="T T T"
Si       1.35436689      -1.35755973      -1.35819004       0.00000000
Si       1.35604476       1.35827649       1.35756850       0.00000000
Si      -1.35861858      -1.35679410       1.35705056       0.00000000
Si      -1.35951453       1.35961227      -1.36371479       0.00000000
Si       0.00172674      -2.70231552      -2.72355534       0.00000000
Si       2.71231758      -2.71375110       0.00037983       0.00000000
Si       2.71313208      -0.00016290       2.71372129       0.00000000
Si       2.71117728       2.71606428       0.00065606       0.00000000
Si      -0.00060273      -2.71378368       2.71406659       0.00000000
Si      -0.00151497       2.71564074       2.71451547       0.00000000
