10
Lattice="16.28999089631971 0.0 0.0 0.0 16.28999089631971 0.0 0.0 0.0 34.529650657227435" Properties=species:S:1:pos:R:3:initial_magmoms:R:1 pbc="T T T"
Si       1.66558734       0.87140097       1.49178675       0.00000000
Si      -1.77402987       1.60945200       0.29013214       0.00000000
Si      -0.99699687      -1.81631871       1.46222245       0.00000000
Si       1.19338911       1.84344156      -1.77012900       0.00000000
Si       1.55898558      -1.70222355      -2.08417635       0.00000000
Si       0.95057037       0.19904751      -3.50376014       0.00000000
Si       3.01011507       2.06926983      -0.13249034       0.00000000
Si      -2.33096868      -0.41598144       2.92892888       0.00000000
Si       0.41067090       2.31743169       2.94284434       0.00000000
Si      -0.95781942       3.53546757       1.47783331       0.00000000
