10
Lattice="16.28999089631971 0.0 0.0 0.0 16.28999089631971 0.0 0.0 0.0 34.529650657227435" Properties=species:S:1:pos:R:3:initial_magmoms:R:1 pbc="T T T"
Si       1.08323613      -1.67985738       1.23895909       0.00000000
Si       1.36145304       1.35211887      -1.36129771       0.00000000
Si      -1.36546038      -1.35674523      -1.36868706       0.00000000
Si      -1.49222916       1.25737623       1.37631811       0.00000000
Si      -0.85286295      -3.43034820       1.33629823       0.00000000
Si       2.71456560       2.69596242       0.03349378       0.00000000
Si      -2.70728560      -2.70648576       0.01305222       0.00000000
Si      -0.00133578       2.70884781      -2.72221559       0.00000000
Si       2.71347417      -0.00734679      -2.72111064       0.00000000
Si      -2.71562771      -0.00615762      -2.72380395       0.00000000
