10
Lattice="16.28999089631971 0.0 0.0 0.0 16.28999089631971 0.0 0.0 0.0 34.529650657227435" Properties=species:S:1:pos:R:3:initial_magmoms:R:1 pbc="T T T"
Si      -1.97573265      -1.10218140      -0.61100251       0.00000000
Si       0.26986014      -1.03865040       2.12405812       0.00000000
Si      -0.64317807       2.21864913       0.58852369       0.00000000
Si       1.79835084      -0.26103096      -1.57659020       0.00000000
Si      -0.95439852      -3.22608789      -0.80747633       0.00000000
Si      -3.06256887      -0.90629415       1.48612247       0.00000000
Si       1.41169140       3.22685352       0.12068120       0.00000000
Si       0.05186736      -3.29396832       1.42300223       0.00000000
Si      -1.59865173      -0.15664464       3.23252958       0.00000000
Si       1.47686769       1.48463802      -3.12137857       0.00000000
