10
Lattice="16.28999089631971 0.0 0.0 0.0 16.28999089631971 0.0 0.0 0.0 34.529650657227435" Properties=species:S:1:pos:R:3:initial_magmoms:R:1 pbc="T T T"
Si      -1.86851187       0.88200576       1.10847146       0.00000000
Si       1.96729443       0.41169717       1.24893816       0.00000000
Si      -0.21799278      -2.25531792      -0.70105589       0.00000000
Si      -0.26986014       1.03865040      -2.12405812       0.00000000
Si      -3.33242901       0.13235625      -0.63793565       0.00000000
Si      -2.24559279      -0.06353100      -2.73506063       0.00000000
Si       1.99218555      -3.00895848      -0.27520147       0.00000000
Si      -1.39587381       3.24128646       0.81959625       0.00000000
Si       3.47662809      -1.17665928       0.30683065       0.00000000
Si      -0.91303821       3.25729953      -1.53553442       0.00000000
