10
Lattice="16.28999089631971 0.0 0.0 0.0 16.28999089631971 0.0 0.0 0.0 34.529650657227435" Properties=species:S:1:pos:R:3:initial_magmoms:R:1 pbc="T T T"
Si       1.34530965       1.36067112       1.38977087       0.00000000
Si      -1.36868580      -1.35443205       1.38942558       0.00000000
Si      -1.30688154       1.41222897      -1.46430662       0.00000000
Si       1.29982797      -1.52935407      -1.47898173       0.00000000
Si       2.70741429       2.71388245       0.00165052       0.00000000
Si      -2.72528442       2.70647050       0.01871853       0.00000000
Si       2.69436600      -2.74157442       0.01996851       0.00000000
Si      -2.72541474      -2.72202642       0.00804887       0.00000000
Si       2.70285309       0.00493587       2.75220806       0.00000000
Si      -0.01150074      -2.71233387       2.75244977       0.00000000
