10
Lattice="16.28999089631971 0.0 0.0 0.0 16.28999089631971 0.0 0.0 0.0 34.529650657227435" Properties=species:S:1:pos:R:3:initial_magmoms:R:1 pbc="T T T"
Si       1.35620766       1.35747828       1.35732680       0.00000000
Si      -1.35746199       1.35690813      -1.35777568       0.00000000
Si      -1.35837423      -1.35902583       1.35691244       0.00000000
Si       1.35808101      -1.35866745      -1.35794833       0.00000000
Si      -0.00083079       2.71495656       2.71251275       0.00000000
Si      -2.71498914       2.71415771      -0.00013812       0.00000000
Si       2.71502172       2.71433982      -0.00051795       0.00000000
Si       0.00014661       2.71419006      -2.71548230       0.00000000
Si       2.71498914       0.00011403      -2.71520607       0.00000000
Si      -2.71148679       0.00022806       2.71941869       0.00000000
