10
Lattice="16.28999089631971 0.0 0.0 0.0 16.28999089631971 0.0 0.0 0.0 34.529650657227435" Properties=species:S:1:pos:R:3:initial_magmoms:R:1 pbc="T T T"
Si      -1.35703845       1.35747828       1.35518596       0.00000000
Si      -1.35620766      -1.35747828      -1.35732680       0.00000000
Si       1.35881406       1.35686154      -1.35784474       0.00000000
Si       1.35899325      -1.35874890       1.36157395       0.00000000
Si      -0.02419065       2.71808654       2.69441921       0.00000000
Si      -2.71142163       2.71273690       0.00024171       0.00000000
Si       2.71590138       2.71246323      -0.00044889       0.00000000
Si      -2.71366965      -0.00057015      -2.71510248       0.00000000
Si       0.00190593       2.71452392      -2.71461906       0.00000000
Si      -2.71458189      -2.71650411      -0.00041436       0.00000000
