10
Lattice="16.28999089631971 0.0 0.0 0.0 16.28999089631971 0.0 0.0 0.0 34.529650657227435" Properties=species:S:1:pos:R:3:initial_magmoms:R:1 pbc="T T T"
Si       1.37453391       1.82130345       0.17634302       0.00000000
Si      -2.27713742       0.26818227       0.12040496       0.00000000
Si       0.69427980      -2.05088494       0.77408614       0.00000000
Si       0.53874288      -0.34653717      -2.33299715       0.00000000
Si       2.72925918      -1.62021969      -0.40658686       0.00000000
Si       3.35870478       0.68098716      -0.14246942       0.00000000
Si      -0.40656582      -3.31635273      -0.87819310       0.00000000
Si      -1.08800584      -1.97654063      -2.73392115       0.00000000
Si       0.73850715       3.09330810      -1.65238283       0.00000000
Si      -3.04366337      -0.78395625      -1.90127269       0.00000000
