10
Lattice="16.28999089631971 0.0 0.0 0.0 16.28999089631971 0.0 0.0 0.0 34.529650657227435" Properties=species:S:1:pos:R:3:initial_magmoms:R:1 pbc="T T T"
Si       1.00989855       0.67864533       1.95859194       0.00000000
Si       1.72802691      -1.24729272      -1.01921227       0.00000000
Si      -1.33892397       1.65632715      -1.04818266       0.00000000
Si      -1.13145453       0.03578913       2.67884632       0.00000000
Si      -2.39054121      -1.40278077       1.21934624       0.00000000
Si       0.06784785      -2.44832184      -2.37325875       0.00000000
Si      -2.69804754       0.29263356      -2.44425175       0.00000000
Si       2.71311579       0.30995777      -2.56876574       0.00000000
Si       2.60255556      -0.87781923       2.56600336       0.00000000
Si       0.09524763       2.98931993      -2.48244156       0.00000000
