10
Lattice="16.28999089631971 0.0 0.0 0.0 16.28999089631971 0.0 0.0 0.0 34.529650657227435" Properties=species:S:1:pos:R:3:initial_magmoms:R:1 pbc="T T T"
Si      -0.02661786      -1.14168465       2.00410204       0.00000000
Si       2.14135308       0.64285620      -0.72025439       0.00000000
Si      -1.24530534       1.86817045       0.76469407       0.00000000
Si      -1.25908668      -1.43856990      -1.45950009       0.00000000
Si       1.13145453      -0.03578913      -2.67884632       0.00000000
Si      -2.30914008      -1.36862064       2.24125182       0.00000000
Si       2.17422630       2.81060234       0.15168884       0.00000000
Si       0.44585730       3.11939558       1.84039688       0.00000000
Si       2.34414729      -2.87582031      -0.08839596       0.00000000
Si      -2.85025153       0.94495751       2.32477909       0.00000000
