10
Lattice="16.28999089631971 0.0 0.0 0.0 16.28999089631971 0.0 0.0 0.0 34.529650657227435" Properties=species:S:1:pos:R:3:initial_magmoms:R:1 pbc="T T T"
Si       0.48283560       0.01601307      -2.35513067       0.00000000
Si      -2.06092935       0.95443110       0.78931373       0.00000000
Si       2.07083367       0.73394595       1.01582836       0.00000000
Si      -0.47263806      -2.35928070       0.28887522       0.00000000
Si       1.39587381      -3.24128646      -0.81959625       0.00000000
Si       1.12601367      -2.20263606      -2.94365436       0.00000000
Si       1.94382054       0.62674146       3.34444024       0.00000000
Si      -3.88064615       0.17572023      -0.60378581       0.00000000
Si       2.53770507       1.02421746      -2.82297317       0.00000000
Si      -1.93655520      -3.10893021      -1.45753190       0.00000000
