10
Lattice="16.28999089631971 0.0 0.0 0.0 16.28999089631971 0.0 0.0 0.0 34.529650657227435" Properties=species:S:1:pos:R:3:initial_magmoms:R:1 pbc="T T T"
Si      -0.33971166       0.82776006      -2.13628162       0.00000000
Si      -1.66729779       0.52901775       1.54817228       0.00000000
Si      -0.09547569      -2.31974959       0.53272375       0.00000000
Si       2.32127613       0.51328161       0.36463331       0.00000000
Si      -0.38630106      -0.36720918       3.30089833       0.00000000
Si       1.15737192      -1.96431988       2.53955364       0.00000000
Si      -0.85794543       3.09158136      -1.49896750       0.00000000
Si       3.12460119      -0.31815999      -1.68069716       0.00000000
Si       0.61713036      -3.42634805      -1.39482602       0.00000000
Si       3.17873286      -1.15084940       1.78476958       0.00000000
