10
Lattice="16.28999089631971 0.0 0.0 0.0 16.28999089631971 0.0 0.0 0.0 34.529650657227435" Properties=species:S:1:pos:R:3:initial_magmoms:R:1 pbc="T T T"
Si       1.54367298      -1.59711070      -0.76134469       0.00000000
Si      -1.28099673       0.89622693      -1.75272605       0.00000000
Si      -1.57814262      -1.39799640       1.03723676       0.00000000
Si       0.64194003       1.86535161       1.31105704       0.00000000
Si       0.38630106       0.36720918      -3.30089833       0.00000000
Si       0.29082537      -1.95254041      -2.76817458       0.00000000
Si      -3.48907365      -0.18259461       0.51980965       0.00000000
Si      -1.35280305       2.01113082       2.59290198       0.00000000
Si       1.39491270      -1.41302066       2.95760435       0.00000000
Si      -1.60888185       3.08765547      -1.03029629       0.00000000
