10
Lattice="16.28999089631971 0.0 0.0 0.0 16.28999089631971 0.0 0.0 0.0 34.529650657227435" Properties=species:S:1:pos:R:3:initial_magmoms:R:1 pbc="T T T"
Si      -0.26533152       1.72561599      -1.68187116       0.00000000
Si      -2.18815425      -1.04495626      -0.20192951       0.00000000
Si      -0.85126653       1.69748316       1.58940071       0.00000000
Si       1.94686677      -1.23899201       1.38491600       0.00000000
Si       1.60748091      -1.42477946      -2.36807930       0.00000000
Si      -2.11791177       2.88596898      -0.47992788       0.00000000
Si      -3.23868006       0.90367146      -1.39814087       0.00000000
Si      -1.89139932       0.25781857       3.13039569       0.00000000
Si      -1.83668121       1.02597678      -3.30038038       0.00000000
Si      -3.55094307      -0.74118848       1.74989461       0.00000000
