10
Lattice="16.28999089631971 0.0 0.0 0.0 16.28999089631971 0.0 0.0 0.0 34.529650657227435" Properties=species:S:1:pos:R:3:initial_magmoms:R:1 pbc="T T T"
Si       1.91738187       0.76326795      -1.15948974       0.00000000
Si       1.42509807      -1.24880769       1.47489687       0.00000000
Si      -1.27004985       1.47152457       1.45801186       0.00000000
Si      -1.38362373      -1.20300021      -1.70412350       0.00000000
Si      -2.64521907      -2.64715758      -0.10822289       0.00000000
Si       2.74149297      -2.64815127       0.03223690       0.00000000
Si       2.70164763       2.71427238       0.04617653       0.00000000
Si      -2.76719859       2.66005926      -0.02733023       0.00000000
Si       0.09133803      -2.59152723       2.84776547       0.00000000
Si      -2.62545930       0.12132792       2.84313849       0.00000000
