10
Lattice="16.28999089631971 0.0 0.0 0.0 16.28999089631971 0.0 0.0 0.0 34.529650657227435" Properties=species:S:1:pos:R:3:initial_magmoms:R:1 pbc="T T T"
Si       1.35638685      -1.35925389       1.36330043       0.00000000
Si      -1.35995436       1.35783666       1.36409461       0.00000000
Si       1.35540945       1.35019665      -1.38512663       0.00000000
Si      -1.35267273      -1.37222073      -1.38474681       0.00000000
Si      -0.14173929       2.53873134      -2.87046873       0.00000000
Si       2.71679733      -2.71285515       0.00462698       0.00000000
Si      -2.71282257       2.71700910       0.00880507       0.00000000
Si      -2.71676475      -2.71578735       0.00524851       0.00000000
Si       2.71441899       2.71950147       0.00155384       0.00000000
Si       2.71479366      -0.00014661       2.72048911       0.00000000
