10
Lattice="16.28999089631971 0.0 0.0 0.0 16.28999089631971 0.0 0.0 0.0 34.529650657227435" Properties=species:S:1:pos:R:3:initial_magmoms:R:1 pbc="T T T"
Si      -1.35664749      -1.35568638       1.35777568       0.00000000
Si       1.36041048      -1.35360126      -1.35867345       0.00000000
Si       1.35840681       1.35910728       1.35718868       0.00000000
Si      -1.35638685       1.35925389      -1.36330043       0.00000000
Si       2.69417052      -0.01088172      -2.73154205       0.00000000
Si       0.00091224      -2.71296918       2.71437736       0.00000000
Si       2.71352304      -2.71386513      -0.00034530       0.00000000
Si      -2.71520091      -2.71272483       0.00051795       0.00000000
Si      -2.71438641       0.00086337       2.71385941       0.00000000
Si       2.71476108       2.71560816      -0.00058700       0.00000000
