10
Lattice="16.28999089631971 0.0 0.0 0.0 16.28999089631971 0.0 0.0 0.0 34.529650657227435" Properties=species:S:1:pos:R:3:initial_magmoms:R:1 pbc="T T T"
Si       1.66653216       1.24768368       0.99970300       0.00000000
Si       1.13508720      -0.01987380      -2.02986118       0.00000000
Si      -0.16799877      -2.27045133       0.87874557       0.00000000
Si      -1.91469402       1.55554839      -0.42278128       0.00000000
Si      -1.58996916      -1.56823830       2.64987593       0.00000000
Si      -0.08692344      -3.27409452      -1.46067410       0.00000000
Si       1.96664283      -2.21482098      -2.10962472       0.00000000
Si       0.78389109       1.72542051       3.10540277       0.00000000
Si      -1.92990888       1.42658046      -2.85553465       0.00000000
Si       1.98146673       3.24622233      -0.28486978       0.00000000
