10
Lattice="16.28999089631971 0.0 0.0 0.0 16.28999089631971 0.0 0.0 0.0 34.529650657227435" Properties=species:S:1:pos:R:3:initial_magmoms:R:1 pbc="T T T"
Si      -1.35778779       1.35731538       1.36440538       0.00000000
Si       1.35677781      -1.36018242       1.36440538       0.00000000
Si       1.36500426       1.37002158      -1.36476449       0.00000000
Si      -1.36627488      -1.38919491      -1.36783417       0.00000000
Si       2.71456560      -2.71150308       0.00283143       0.00000000
Si      -2.71267596      -2.71399545       0.01008266       0.00000000
Si      -2.71533123       2.71305063       0.00196819       0.00000000
Si       2.71331127       2.71682991       0.01104949       0.00000000
Si       0.00061902       2.71415835       2.72214653       0.00000000
Si      -2.71469592      -0.00146610       2.72166312       0.00000000
