10
Lattice="16.28999089631971 0.0 0.0 0.0 16.28999089631971 0.0 0.0 0.0 34.529650657227435" Properties=species:S:1:pos:R:3:initial_magmoms:R:1 pbc="T T T"
Si       1.42342020      -1.20544371      -1.42659331       0.00000000
Si      -0.79114014      -1.86245199       1.32614650       0.00000000
Si      -1.29316536       1.51280343      -1.40414903       0.00000000
Si       1.87424595       0.96971112       1.28681721       0.00000000
Si       0.53045127       1.80999819       3.11861620       0.00000000
Si      -1.78996149       0.75750129       3.12735221       0.00000000
Si       2.74988232      -2.53491948       0.01249974       0.00000000
Si      -2.64476295      -2.70000234       0.09067491       0.00000000
Si       0.06779898      -2.55961512      -2.78236628       0.00000000
Si      -2.64995946       0.15592788      -2.77770477       0.00000000
