10
Lattice="16.28999089631971 0.0 0.0 0.0 16.28999089631971 0.0 0.0 0.0 34.529650657227435" Properties=species:S:1:pos:R:3:initial_magmoms:R:1 pbc="T T T"
Si      -1.80092466       1.09644732      -1.04828625       0.00000000
Si      -0.31493457      -1.99853865       1.28457278       0.00000000
Si       0.63188910      -1.35215145      -1.89944261       0.00000000
Si       0.50117814       2.07109431       1.44969366       0.00000000
Si       1.89361476      -2.68266978       0.78800160       0.00000000
Si      -3.33457929       0.50718915       0.73061329       0.00000000
Si       3.12852708      -0.76269780       1.62047741       0.00000000
Si       1.92181275       0.82086939       2.96268021       0.00000000
Si      -1.29717270       3.39328845      -0.90509171       0.00000000
Si      -0.84637953      -3.26609613      -1.74499140       0.00000000
