10
Lattice="16.28999089631971 0.0 0.0 0.0 16.28999089631971 0.0 0.0 0.0 34.529650657227435" Properties=species:S:1:pos:R:3:initial_magmoms:R:1 pbc="T T T"
Si      -1.31639490       1.39934358       1.44265997       0.00000000
Si       1.43183083      -1.29160152       1.43875812       0.00000000
Si       0.98865639       1.68298506      -1.42131170       0.00000000
Si      -0.75932577      -1.90446390      -1.37117461       0.00000000
Si      -0.82411110       3.41141922      -1.19172664       0.00000000
Si      -2.66199777      -2.72439499      -0.11053983       0.00000000
Si      -2.74149297       2.64815127      -0.03223690       0.00000000
Si       2.72743211       2.68708437       0.01679178       0.00000000
Si      -2.65015494       0.05662404       2.81552857       0.00000000
Si       2.77875539      -2.69360526       0.04779252       0.00000000
