10
Lattice="16.28999089631971 0.0 0.0 0.0 16.28999089631971 0.0 0.0 0.0 34.529650657227435" Properties=species:S:1:pos:R:3:initial_magmoms:R:1 pbc="T T T"
Si      -0.39161160      -1.02884382       2.07602735       0.00000000
Si       0.58233492      -1.70271225      -1.51823506       0.00000000
Si       2.16169670       0.98803737      -0.11550175       0.00000000
Si      -1.56059829       1.88227692      -0.17475466       0.00000000
Si      -2.74214457      -1.53173241       1.78041884       0.00000000
Si       0.77333517      -3.06816937       1.95234207       0.00000000
Si       0.36831690      -3.78352259      -0.29001470       0.00000000
Si       2.49117173      -0.76048236      -2.84054877       0.00000000
Si      -3.44292408       1.07048106      -1.38194645       0.00000000
Si       2.48767589       1.84019985      -2.31407489       0.00000000
