10
Lattice="16.28999089631971 0.0 0.0 0.0 16.28999089631971 0.0 0.0 0.0 34.529650657227435" Properties=species:S:1:pos:R:3:initial_magmoms:R:1 pbc="T T T"
Si      -1.90267200      -0.81993109       1.26063478       0.00000000
Si       0.75932577       1.90446390       1.37117461       0.00000000
Si      -0.74541411       0.09127287      -2.35002028       0.00000000
Si       1.72936269      -1.84543057       0.26506291       0.00000000
Si       1.76487489       0.19927557      -2.62756976       0.00000000
Si      -0.56044116      -2.11759850       2.81684557       0.00000000
Si       2.19115660       0.61286238       2.80993273       0.00000000
Si       3.53808116      -0.78914136       1.41896713       0.00000000
Si      -2.23269111       2.14130421      -2.37747137       0.00000000
Si       0.66033144      -3.60224747       1.45229517       0.00000000
