10
Lattice="16.28999089631971 0.0 0.0 0.0 16.28999089631971 0.0 0.0 0.0 34.529650657227435" Properties=species:S:1:pos:R:3:initial_magmoms:R:1 pbc="T T T"
Si      -1.33376004      -1.34271954       1.37286860       0.00000000
Si       1.38119652       1.37060802       1.36889769       0.00000000
Si      -1.42509807       1.24880769      -1.47489687       0.00000000
Si       1.31639490      -1.39934358      -1.44265997       0.00000000
Si       0.49228380       2.01207564      -2.63438661       0.00000000
Si       2.30505129       0.28364148      -2.86397167       0.00000000
Si      -2.68944642      -2.70721881      -0.02585927       0.00000000
Si      -2.69514792       2.72033226      -0.01688501       0.00000000
Si      -2.69417052       0.01088172       2.73154205       0.00000000
Si       0.01935252      -2.70298341       2.73119676       0.00000000
