10
Lattice="16.28999089631971 0.0 0.0 0.0 16.28999089631971 0.0 0.0 0.0 34.529650657227435" Properties=species:S:1:pos:R:3:initial_magmoms:R:1 pbc="T T T"
Si      -1.35845568       1.35620766      -1.36513050       0.00000000
Si       1.35984033      -1.35827649      -1.36371479       0.00000000
Si       1.36573731       1.34879571       1.38657343       0.00000000
Si      -1.35984033      -1.36269108       1.39068246       0.00000000
Si      -2.71112841       2.71179630      -0.00742388       0.00000000
Si      -2.71466334      -2.71687878      -0.00479962       0.00000000
Si       2.71771092       2.71471221      -0.00897771       0.00000000
Si      -2.71388142      -0.00161271      -2.72180123       0.00000000
Si       0.00079821       2.71350675      -2.72218106       0.00000000
Si       2.71717773      -0.00148239      -2.72228465       0.00000000
