10
Lattice="16.28999089631971 0.0 0.0 0.0 16.28999089631971 0.0 0.0 0.0 34.529650657227435" Properties=species:S:1:pos:R:3:initial_magmoms:R:1 pbc="T T T"
Si      -1.35536058      -1.90101042      -0.52913266       0.00000000
Si      -0.07610688       1.18063404      -2.16293853       0.00000000
Si      -1.16124894       1.28181123       1.89889014       0.00000000
Si       2.05077158      -1.49320656       0.49211686       0.00000000
Si      -2.53232937      -2.26606932       1.42296770       0.00000000
Si      -0.89024850      -0.48902580      -3.61377167       0.00000000
Si      -2.93804811      -0.19209168       2.38579302       0.00000000
Si      -2.64578922      -1.47815460      -2.40727047       0.00000000
Si       0.51574140       1.66588056       3.47030089       0.00000000
Si       2.48273676       2.02367412       2.21984342       0.00000000
