10
Lattice="16.28999089631971 0.0 0.0 0.0 16.28999089631971 0.0 0.0 0.0 34.529650657227435" Properties=species:S:1:pos:R:3:initial_magmoms:R:1 pbc="T T T"
Si       0.79394202      -1.10923497      -1.99988942       0.00000000
Si       1.45819935       1.94295717       0.23010572       0.00000000
Si      -2.46150045       0.31664502      -0.21446378       0.00000000
Si      -0.77744025      -2.05392465       1.18485109       0.00000000
Si       1.01647971      -1.12697478       2.38959128       0.00000000
Si      -2.65183281      -1.83277161      -1.40863789       0.00000000
Si      -0.60139422      -3.01189068      -1.79637155       0.00000000
Si       0.24829218       3.36776202       1.70959849       0.00000000
Si       1.42884477       2.98234062      -1.89854484       0.00000000
Si       0.37064637      -3.83161977       0.19643929       0.00000000
