10
Lattice="16.28999089631971 0.0 0.0 0.0 16.28999089631971 0.0 0.0 0.0 34.529650657227435" Properties=species:S:1:pos:R:3:initial_magmoms:R:1 pbc="T T T"
Si       0.54428148       1.96467893       1.23992592       0.00000000
Si       1.39167099      -1.29404502      -1.44624070       0.00000000
Si      -0.87809616      -1.84738374       1.24752245       0.00000000
Si      -1.33275006       1.38129982      -1.45718660       0.00000000
Si       2.53439820       2.62888739      -0.13898192       0.00000000
Si       2.58020568      -2.80259676      -0.01629800       0.00000000
Si      -2.77742871       2.67876737      -0.12333998       0.00000000
Si       0.02269197      -2.65851171      -2.82052156       0.00000000
Si      -2.68208334       0.05199768      -2.82166104       0.00000000
Si      -2.22189084      -1.00709667       3.07932144       0.00000000
