10
Lattice="16.28999089631971 0.0 0.0 0.0 16.28999089631971 0.0 0.0 0.0 34.529650657227435" Properties=species:S:1:pos:R:3:initial_magmoms:R:1 pbc="T T T"
Si       1.67699034       0.38406933       1.57141075       0.00000000
Si      -1.77679917      -1.47390291       0.48690288       0.00000000
Si      -0.48392703       2.28118644      -0.52384962       0.00000000
Si       1.16124894      -1.28181123      -1.89889014       0.00000000
Si       3.64398570       0.74186289       0.32095328       0.00000000
Si       1.71701487      -1.52093214       2.95829494       0.00000000
Si      -1.37108043      -3.54788055      -0.47592244       0.00000000
Si      -1.61248194       3.31063299       1.26219756       0.00000000
Si       1.77772770       3.43143963      -0.99759669       0.00000000
Si      -0.19411164      -3.18282165      -2.42802280       0.00000000
