10
Lattice="16.28999089631971 0.0 0.0 0.0 16.28999089631971 0.0 0.0 0.0 34.529650657227435" Properties=species:S:1:pos:R:3:initial_magmoms:R:1 pbc="T T T"
Si       0.63602676      -1.27200465       1.82872585       0.00000000
Si      -0.55162827      -1.39950648      -1.79098492       0.00000000
Si      -1.99953397       0.92678697       0.82063214       0.00000000
Si       1.56548529       1.75743036      -0.01823167       0.00000000
Si       0.82016892       0.45905220       3.32748617       0.00000000
Si      -0.19976427      -3.43984527      -0.68061432       0.00000000
Si      -1.04475915       1.86843042       2.81789731       0.00000000
Si      -0.73850715      -3.09330810       1.65238283       0.00000000
Si      -3.16850993       1.45684728      -1.13133011       0.00000000
Si      -2.80056491      -0.70050258      -2.32139518       0.00000000
