10
Lattice="16.28999089631971 0.0 0.0 0.0 16.28999089631971 0.0 0.0 0.0 34.529650657227435" Properties=species:S:1:pos:R:3:initial_magmoms:R:1 pbc="T T T"
Si      -1.04870133       1.93210803       0.80882299       0.00000000
Si       2.22593076      -0.16470819       0.73492950       0.00000000
Si       0.00866628       0.80282007      -2.23396606       0.00000000
Si      -1.31271336      -1.83311370       0.75785720       0.00000000
Si       2.46874950       1.47968586       2.46856063       0.00000000
Si      -2.92848425       2.36750715      -0.54795133       0.00000000
Si      -0.17547588      -0.92823678      -3.73272638       0.00000000
Si       3.70118574      -0.16369821      -1.10933471       0.00000000
Si      -1.85626179       2.21219829      -2.74355493       0.00000000
Si      -2.00046087       1.88602362       2.90142458       0.00000000
