10
Lattice="16.28999089631971 0.0 0.0 0.0 16.28999089631971 0.0 0.0 0.0 34.529650657227435" Properties=species:S:1:pos:R:3:initial_magmoms:R:1 pbc="T T T"
Si      -0.95175954      -0.04608441       2.09260159       0.00000000
Si       1.04870133      -1.93210803      -0.80882299       0.00000000
Si      -1.87978292       0.43539912      -1.35677432       0.00000000
Si       0.99520497       2.19941064      -0.15728265       0.00000000
Si      -1.30807560       2.23264224       2.16846327       0.00000000
Si       1.05736761      -1.12928796      -3.04278905       0.00000000
Si      -0.80756046       0.28009026      -3.55237792       0.00000000
Si       3.05352792       1.84717197       1.19434675       0.00000000
Si      -0.26401203      -3.76522173      -0.05096579       0.00000000
Si       0.55003185      -0.68641173       3.71999878       0.00000000
