10
Lattice="16.28999089631971 0.0 0.0 0.0 16.28999089631971 0.0 0.0 0.0 34.529650657227435" Properties=species:S:1:pos:R:3:initial_magmoms:R:1 pbc="T T T"
Si      -1.35693661       1.35423657       1.36008917       0.00000000
Si       1.35791974      -1.35899325       1.35905328       0.00000000
Si      -1.35275560      -1.35255870      -1.37481953       0.00000000
Si       1.35987454       1.34452773      -1.38538215       0.00000000
Si      -2.70989593       2.71085148      -0.00124307       0.00000000
Si      -2.71216024      -2.71635750      -0.00369467       0.00000000
Si       2.71660348       2.71212210      -0.00400544       0.00000000
Si       0.00081450       2.71334385       2.71627649       0.00000000
Si      -2.71377295      -0.00161271       2.71620743       0.00000000
Si       2.71543060      -2.71544526      -0.00462698       0.00000000
