10
Lattice="16.28999089631971 0.0 0.0 0.0 16.28999089631971 0.0 0.0 0.0 34.529650657227435" Properties=species:S:1:pos:R:3:initial_magmoms:R:1 pbc="T T T"
Si       1.35016733      -1.35058761       1.35511690       0.00000000
Si      -1.35605925      -1.35606105      -1.35594561       0.00000000
Si       1.35704171       1.35786924      -1.35615279       0.00000000
Si      -1.35552606       1.36013355       1.35736133       0.00000000
Si      -2.71339665      -2.71285515       0.00262425       0.00000000
Si       0.00036164      -2.71386513      -2.71323788       0.00000000
Si      -2.71426002       0.00104256      -2.71309976       0.00000000
Si       2.71539965       0.00110772      -2.71313429       0.00000000
Si       0.00032743       2.71599912      -2.71303070       0.00000000
Si      -2.71520484       2.71407690       0.00193366       0.00000000
