10
Lattice="16.28999089631971 0.0 0.0 0.0 16.28999089631971 0.0 0.0 0.0 34.529650657227435" Properties=species:S:1:pos:R:3:initial_magmoms:R:1 pbc="T T T"
Si      -1.35623372      -1.35861532       1.35601467       0.00000000
Si      -1.35605616       1.35770634      -1.35746491       0.00000000
Si       1.35896067       1.35656604       1.35601467       0.00000000
Si       1.35782037      -1.35782363      -1.36195377       0.00000000
Si      -2.71365805       2.71179630      -0.00110495       0.00000000
Si      -0.00773775       2.69013060      -2.73650742       0.00000000
Si       0.00118917       2.71441899       2.71344505       0.00000000
Si      -2.71410687      -0.00070047       2.71396300       0.00000000
Si      -2.71302101      -2.71658470      -0.00082871       0.00000000
Si       0.00079821      -2.71603953       2.71372129       0.00000000
