10
Lattice="16.28999089631971 0.0 0.0 0.0 16.28999089631971 0.0 0.0 0.0 34.529650657227435" Properties=species:S:1:pos:R:3:initial_magmoms:R:1 pbc="T T T"
Si       1.87978292      -0.43539912       1.35677432       0.00000000
Si      -1.30565232      -1.71453879      -1.03702958       0.00000000
Si       1.07222246      -0.15530886      -2.19560359       0.00000000
Si      -0.77433863       2.31712218      -0.18062470       0.00000000
Si      -2.95304373       1.55512485       0.19122531       0.00000000
Si      -3.15238446      -0.31387572      -1.17097017       0.00000000
Si       2.87498789       1.76401152       1.19949167       0.00000000
Si       0.92802338      -0.48148353       3.44937591       0.00000000
Si       2.93715053      -1.56468708      -1.68601472       0.00000000
Si       1.57429655       2.05348482      -2.73813377       0.00000000
