10
Lattice="16.28999089631971 0.0 0.0 0.0 16.28999089631971 0.0 0.0 0.0 34.529650657227435" Properties=species:S:1:pos:R:3:initial_magmoms:R:1 pbc="T T T"
Si      -1.39845319       1.26988695       1.41541951       0.00000000
Si      -1.54387402      -1.34262180      -1.21683317       0.00000000
Si       1.31696668      -1.45899756       1.39515060       0.00000000
Si       1.30101877       1.36474362      -1.50937962       0.00000000
Si       0.00555163      -1.95732495      -2.78618322       0.00000000
Si       1.52036362      -0.23659596      -3.43171540       0.00000000
Si       2.73549988       2.67525783      -0.07720489       0.00000000
Si      -0.04356923       2.62816344       2.78163770       0.00000000
Si      -2.91886405       2.49344514       0.04640097       0.00000000
Si       2.67369562      -0.09140319       2.77652731       0.00000000
