10
Lattice="16.28999089631971 0.0 0.0 0.0 16.28999089631971 0.0 0.0 0.0 34.31052061344573" Properties=species:S:1:pos:R:3:initial_magmoms:R:1 pbc="T T T"
Si      -1.61969841      -0.61885125      -1.64323468       0.00000000
Si       1.84269222      -1.59307470      -0.05963172       0.00000000
Si      -1.25465580      -0.10545820       2.20530994       0.00000000
Si       0.79811226       1.79927611      -1.60875259       0.00000000
Si      -2.65401567      -2.31040485      -0.39536035       0.00000000
Si      -3.39141673      -0.48556825       0.96172443       0.00000000
Si      -0.31838805      -1.95422400      -3.00443673       0.00000000
Si       0.85423131      -3.28174497      -1.42546569       0.00000000
Si       2.02049757      -2.22636474       2.24723742       0.00000000
Si      -2.01300417       2.74425901       1.83664319       0.00000000
