10
Lattice="16.28999089631971 0.0 0.0 0.0 16.28999089631971 0.0 0.0 0.0 34.31052061344573" Properties=species:S:1:pos:R:3:initial_magmoms:R:1 pbc="T T T"
Si      -1.33970589      -1.34794863      -1.37581833       0.00000000
Si       1.36710567       1.36752921      -1.37533799       0.00000000
Si       1.35467640      -1.37363796       1.42556862       0.00000000
Si      -1.34306163       1.30285791       1.50197819       0.00000000
Si       2.13091119       0.44287623       2.75743515       0.00000000
Si       0.64229841       2.34849672       2.61058604       0.00000000
Si      -2.70817992      -2.71523349       0.00861195       0.00000000
Si      -2.69692353       2.72803743       0.02302237       0.00000000
Si       2.73334797      -2.69824302       0.00209294       0.00000000
Si      -2.70329292       0.00845451      -2.73331484       0.00000000
