10
Lattice="16.28999089631971 0.0 0.0 0.0 16.28999089631971 0.0 0.0 0.0 34.31052061344573" Properties=species:S:1:pos:R:3:initial_magmoms:R:1 pbc="T T T"
Si       1.22590395       1.63243719       1.17866997       0.00000000
Si      -0.02072088      -1.86321762       1.44708133       0.00000000
Si      -2.27825424       0.58396392      -0.26844566       0.00000000
Si       1.59751143      -0.74547927      -1.61781057       0.00000000
Si       0.87469155       3.49695801      -0.14159960       0.00000000
Si       0.49467843       1.22300433       3.36143789       0.00000000
Si       1.26842085      -1.00414818       3.24893363       0.00000000
Si      -2.63919177       2.21868171       1.36748087       0.00000000
Si      -2.26149183      -2.34308844       1.87208598       0.00000000
Si       3.48404004       1.03767300       1.20104045       0.00000000
