10
Lattice="16.28999089631971 0.0 0.0 0.0 16.28999089631971 0.0 0.0 0.0 34.31052061344573" Properties=species:S:1:pos:R:3:initial_magmoms:R:1 pbc="T T T"
Si       1.35066906      -1.35423657      -1.35523201       0.00000000
Si      -1.34842104      -1.36715454       1.34902180       0.00000000
Si       1.35360126       1.34577459       1.37399988       0.00000000
Si      -1.36192545       1.36058545      -1.35406545       0.00000000
Si      -0.23192073       2.38634558       2.74470594       0.00000000
Si      -2.64973140      -0.03178179       2.71022385       0.00000000
Si       2.70795186      -2.70829395       0.00658762       0.00000000
Si       2.70979263       0.00333252      -2.71135610       0.00000000
Si      -0.00426798      -2.71104696      -2.71163058       0.00000000
Si      -0.00423540       2.71792853      -2.71152765       0.00000000
