10
Lattice="16.28999089631971 0.0 0.0 0.0 16.28999089631971 0.0 0.0 0.0 34.31052061344573" Properties=species:S:1:pos:R:3:initial_magmoms:R:1 pbc="T T T"
Si      -1.17261936       1.32752097      -1.57897104       0.00000000
Si       0.98846091       1.68867027       1.36583397       0.00000000
Si      -1.86215877      -0.80314587       1.32589650       0.00000000
Si       1.50645033      -1.35971001      -1.54184704       0.00000000
Si      -2.47392972       2.66289372      -0.21776900       0.00000000
Si      -0.85423131       3.28174497       1.42546569       0.00000000
Si      -2.56401342      -2.64618018      -0.01972856       0.00000000
Si      -3.50824698       0.97134012       1.03010534       0.00000000
Si       2.73403215       2.63883339      -0.01454767       0.00000000
Si      -2.54451429      -0.01612710      -2.92627732       0.00000000
