10
Lattice="16.28999089631971 0.0 0.0 0.0 16.28999089631971 0.0 0.0 0.0 34.31052061344573" Properties=species:S:1:pos:R:3:initial_magmoms:R:1 pbc="T T T"
Si       0.91992888       1.82557047       1.08284064       0.00000000
Si      -0.12934260      -2.21084622       0.71619821       0.00000000
Si      -2.34685143       0.26940404       0.07102282       0.00000000
Si       1.23808887      -0.04978224      -2.07987061       0.00000000
Si      -2.07151785      -2.03395311      -0.56276147       0.00000000
Si      -2.11771629       2.34454544      -1.00584778       0.00000000
Si       3.02216967       0.89025406       1.07062608       0.00000000
Si       3.30704919      -0.22687083      -0.95256352       0.00000000
Si      -0.65860470       3.47779187       0.40651128       0.00000000
Si      -2.84956083       0.23989278       2.37240227       0.00000000
