10
Lattice="16.28999089631971 0.0 0.0 0.0 16.28999089631971 0.0 0.0 0.0 34.31052061344573" Properties=species:S:1:pos:R:3:initial_magmoms:R:1 pbc="T T T"
Si       0.33270696      -2.22518142      -0.67893696       0.00000000
Si       1.34110683       0.00164529       1.95432835       0.00000000
Si      -2.34048204       0.47827440      -0.37604352       0.00000000
Si       1.10750823       1.25894007      -1.76414502       0.00000000
Si      -2.22560496      -0.21931227      -2.58145639       0.00000000
Si      -0.04368978      -0.02782332      -3.46347744       0.00000000
Si       2.46290139       2.50067790      -0.17028321       0.00000000
Si       0.37776510       2.05775280       2.83442800       0.00000000
Si       3.37211145       0.64607769       0.91286622       0.00000000
Si      -1.71336591      -3.30918318      -0.11916050       0.00000000
