10
Lattice="16.28999089631971 0.0 0.0 0.0 16.28999089631971 0.0 0.0 0.0 34.31052061344573" Properties=species:S:1:pos:R:3:initial_magmoms:R:1 pbc="T T T"
Si       2.21824188      -0.78761777      -0.37278401       0.00000000
Si      -1.10946303      -2.19657245       0.08086994       0.00000000
Si       0.15677496       0.58372723       2.41004094       0.00000000
Si      -0.82648944       1.37750472      -2.10855422       0.00000000
Si      -1.59741369      -0.60238418       3.51411980       0.00000000
Si       3.81422205       0.83109251       0.38489564       0.00000000
Si      -3.50857278      -1.78981115       0.15113793       0.00000000
Si       2.52625320      -1.66325414      -2.53146594       0.00000000
Si       1.20083364       3.75746231      -0.21783762       0.00000000
Si      -1.94080689      -0.20635799      -3.53611285       0.00000000
