10
Lattice="16.28999089631971 0.0 0.0 0.0 16.28999089631971 0.0 0.0 0.0 34.31052061344573" Properties=species:S:1:pos:R:3:initial_magmoms:R:1 pbc="T T T"
Si       1.95440904      -0.63573012       1.12826779       0.00000000
Si      -0.30397140       2.24672006       0.73709333       0.00000000
Si      -1.75418865      -1.18611141       1.10407886       0.00000000
Si      -0.15677496      -0.58372723      -2.41004094       0.00000000
Si      -0.42318162       1.55331992       3.02498874       0.00000000
Si       1.40509395       0.08357747       3.30612930       0.00000000
Si      -2.17880379       2.93995730      -0.45434017       0.00000000
Si       2.06146692      -1.37134500      -2.78282495       0.00000000
Si      -2.03906817      -0.06898652       3.12726846       0.00000000
Si       3.64943241       0.77907902       0.29345805       0.00000000
