10
Lattice="16.28999089631971 0.0 0.0 0.0 16.28999089631971 0.0 0.0 0.0 34.31052061344573" Properties=species:S:1:pos:R:3:initial_magmoms:R:1 pbc="T T T"
Si       1.35742941       1.35814617      -1.35502615       0.00000000
Si      -1.35772263       1.35692442       1.35763375       0.00000000
Si      -1.35638685      -1.35778779      -1.35831996       0.00000000
Si       1.35773892      -1.35772263       1.35780530       0.00000000
Si       0.00410508       2.70946683      -2.71742906       0.00000000
Si       2.71409319       0.00141723       2.71355197       0.00000000
Si       0.00014661       2.71360449       2.71475284       0.00000000
Si       2.71463076       2.71487511       0.00054897       0.00000000
Si       2.71466334      -2.71526444       0.00017155       0.00000000
Si      -2.71559187       2.71454931       0.00010293       0.00000000
