10
Lattice="16.28999089631971 0.0 0.0 0.0 16.28999089631971 0.0 0.0 0.0 34.31052061344573" Properties=species:S:1:pos:R:3:initial_magmoms:R:1 pbc="T T T"
Si       1.48387239      -1.25283132      -1.33516035       0.00000000
Si      -1.23000903       1.50627114      -1.33828260       0.00000000
Si       1.90143396       0.87417027       1.14254097       0.00000000
Si      -1.82244375      -0.79418637       1.42965157       0.00000000
Si       0.86866425       1.21712364       3.27912691       0.00000000
Si      -2.59867854      -2.61070056       0.09778504       0.00000000
Si      -3.31105653       1.11143412       1.28280246       0.00000000
Si      -2.58624927       0.13046661      -2.70312157       0.00000000
Si       0.13466943      -2.58592347      -2.70895436       0.00000000
Si       2.84835537      -2.62319499       0.13840872       0.00000000
