10
Lattice="16.28999089631971 0.0 0.0 0.0 16.28999089631971 0.0 0.0 0.0 34.31052061344573" Properties=species:S:1:pos:R:3:initial_magmoms:R:1 pbc="T T T"
Si      -0.45820512      -0.92882322       2.07740025       0.00000000
Si      -0.77374242       2.22715251       0.11250426       0.00000000
Si       2.31555834       0.24519708      -0.45241878       0.00000000
Si      -1.28914173      -0.85906944      -1.80185231       0.00000000
Si      -0.04251690       2.63658537      -2.07026366       0.00000000
Si      -1.26842085       1.00414818      -3.24893363       0.00000000
Si       2.21561919       2.04182118      -2.04789319       0.00000000
Si      -2.80665297      -0.73954971       2.29688478       0.00000000
Si      -3.13509195       2.24393121       0.09857418       0.00000000
Si       3.39332103       1.00618443       1.58981317       0.00000000
