10
Lattice="16.28999089631971 0.0 0.0 0.0 16.28999089631971 0.0 0.0 0.0 34.31052061344573" Properties=species:S:1:pos:R:3:initial_magmoms:R:1 pbc="T T T"
Si       1.35656604       1.35687555       1.35639857       0.00000000
Si       1.35692442      -1.35762489      -1.35691323       0.00000000
Si      -1.35772263       1.35799956      -1.35705047       0.00000000
Si      -1.35755973      -1.35889551       1.35729064       0.00000000
Si       0.00273672       2.71083519       2.71392939       0.00000000
Si       0.00032580       2.71435383      -2.71193938       0.00000000
Si      -0.00027693      -2.71435383      -2.71248834       0.00000000
Si       0.00319284      -2.71723716       2.71049833       0.00000000
Si       2.71464705       2.71404432       0.00003431       0.00000000
Si      -2.71520091       2.71432125      -0.00027448       0.00000000
