10
Lattice="16.28999089631971 0.0 0.0 0.0 16.28999089631971 0.0 0.0 0.0 34.31052061344573" Properties=species:S:1:pos:R:3:initial_magmoms:R:1 pbc="T T T"
Si       0.70793082       1.54740339      -1.58597039       0.00000000
Si      -2.36555235       0.16425207      -0.22590059       0.00000000
Si       1.01670777       0.95465916       1.98445300       0.00000000
Si       0.83155563      -2.22715251      -0.53675408       0.00000000
Si       2.99884239       1.75712085      -1.11042631       0.00000000
Si       0.11360646      -3.34023192       1.56528114       0.00000000
Si      -3.24304578      -0.83461815       1.65853718       0.00000000
Si       3.03112917       2.06128773       1.24125240       0.00000000
Si      -0.24620706      -2.98813986      -2.57898603       0.00000000
Si      -3.33550782      -1.00618443      -2.01406300       0.00000000
