10
Lattice="16.28999089631971 0.0 0.0 0.0 16.28999089631971 0.0 0.0 0.0 34.31052061344573" Properties=species:S:1:pos:R:3:initial_magmoms:R:1 pbc="T T T"
Si       0.30801132      -0.87563637      -2.15868192       0.00000000
Si      -2.21824188       0.78761777       0.37278401       0.00000000
Si       1.59598017       1.61871028       0.75767965       0.00000000
Si       0.04880484      -2.56215636       0.13518353       0.00000000
Si       3.31180587      -0.04789260       0.46700076       0.00000000
Si      -3.32770491      -1.40895468       0.45365396       0.00000000
Si      -2.06146692       1.37134500       2.78282495       0.00000000
Si       1.56216213       0.70273384      -3.34637557       0.00000000
Si      -2.10193128      -3.04153848      -1.05662738       0.00000000
Si      -0.10705788       0.73561488       3.91109274       0.00000000
