10
Lattice="16.28999089631971 0.0 0.0 0.0 16.28999089631971 0.0 0.0 0.0 34.31052061344573" Properties=species:S:1:pos:R:3:initial_magmoms:R:1 pbc="T T T"
Si       1.35431802      -1.35421865      -1.35327631       0.00000000
Si      -1.35933534      -1.35638522       1.35828565       0.00000000
Si       1.35694071       1.35868374       1.35904048       0.00000000
Si      -1.36353816       1.36125756      -1.36226567       0.00000000
Si       2.70225036       0.00024435      -2.71817360       0.00000000
Si       2.71071487      -2.71430124      -0.00010293       0.00000000
Si       2.71319014       0.00167787       2.71516457       0.00000000
Si      -0.00197109      -2.71361347       2.71574785       0.00000000
Si       2.71256009       2.71681362       0.00332812       0.00000000
Si       0.00664632      -2.71445876      -2.71553855       0.00000000
