10
Lattice="16.28999089631971 0.0 0.0 0.0 16.28999089631971 0.0 0.0 0.0 34.31052061344573" Properties=species:S:1:pos:R:3:initial_magmoms:R:1 pbc="T T T"
Si      -1.35827649      -1.35655557      -1.35660443       0.00000000
Si       1.35736425      -1.35722825       1.35746220       0.00000000
Si      -1.35692442       1.35754181       1.35763375       0.00000000
Si       1.35933534       1.35638522      -1.35828565       0.00000000
Si       2.71365336       0.00216657      -2.71156196       0.00000000
Si      -2.71226871      -0.00263898      -2.71338042       0.00000000
Si      -2.71432125      -2.71499796      -0.00020586       0.00000000
Si      -2.71466334       2.71526444      -0.00017155       0.00000000
Si      -0.00057015       2.71668167       2.71338042       0.00000000
Si       2.71555929      -2.71478619       0.00010293       0.00000000
