10
Lattice="16.28999089631971 0.0 0.0 0.0 16.28999089631971 0.0 0.0 0.0 34.31052061344573" Properties=species:S:1:pos:R:3:initial_magmoms:R:1 pbc="T T T"
Si      -1.89801306       1.11762432      -0.86863994       0.00000000
Si      -0.06812478      -1.31846373       2.02874791       0.00000000
Si       1.46631177       1.91860362       0.44524787       0.00000000
Si       0.38734362      -2.08930001      -1.30150171       0.00000000
Si       2.50758486      -2.60966452      -0.43519489       0.00000000
Si      -1.16248698       1.89092691      -2.94998590       0.00000000
Si      -3.56606019      -0.62165898      -0.85786643       0.00000000
Si      -1.85699484      -2.78480156       1.71116955       0.00000000
Si      -1.30767975      -3.50410916      -0.46669196       0.00000000
Si       1.77386697      -2.80951349       1.85448468       0.00000000
