10
Lattice="16.28999089631971 0.0 0.0 0.0 16.28999089631971 0.0 0.0 0.0 34.31052061344573" Properties=species:S:1:pos:R:3:initial_magmoms:R:1 pbc="T T T"
Si      -1.35652694       1.35571896      -1.35626133       0.00000000
Si       1.35773892      -1.35695700      -1.35615840       0.00000000
Si       1.35786924       1.35526284       1.35934928       0.00000000
Si      -1.35754181      -1.36042677       1.35880031       0.00000000
Si       2.71324611      -0.00123804      -2.71214524       0.00000000
Si       0.00035838       2.71306692      -2.71314024       0.00000000
Si      -2.71514477       0.00061902      -2.71125316       0.00000000
Si      -2.71451473      -2.71451673       0.00058328       0.00000000
Si      -0.00045612      -2.71511946      -2.71403232       0.00000000
Si      -2.71446510       2.71511946       0.00078914       0.00000000
