10
Lattice="16.28999089631971 0.0 0.0 0.0 16.28999089631971 0.0 0.0 0.0 34.31052061344573" Properties=species:S:1:pos:R:3:initial_magmoms:R:1 pbc="T T T"
Si      -1.35661491       1.35599589      -1.35893755       0.00000000
Si      -1.35822762      -1.35053874       1.36291757       0.00000000
Si       1.35844821      -1.36168110      -1.35880031       0.00000000
Si       1.35258543       1.35961227       1.36703484       0.00000000
Si       0.10301896      -2.63028114       2.65652785       0.00000000
Si      -2.71344159      -0.00158013      -2.71653699       0.00000000
Si      -2.71362078       2.71658556       0.00027448       0.00000000
Si       0.00152492       2.71386513      -2.71681147       0.00000000
Si      -2.71586880      -2.71572219       0.00006862       0.00000000
Si       2.71437731       2.71735119       0.00422020       0.00000000
