10
Lattice="16.28999089631971 0.0 0.0 0.0 16.28999089631971 0.0 0.0 0.0 34.31052061344573" Properties=species:S:1:pos:R:3:initial_magmoms:R:1 pbc="T T T"
Si       1.35661491      -1.35599589       1.35893755       0.00000000
Si      -1.35682668      -1.35757602      -1.35759944       0.00000000
Si       1.35813983       1.35786924      -1.35787392       0.00000000
Si      -1.35700587       1.36058967       1.35921203       0.00000000
Si       0.00684180       2.70511740       2.70435675       0.00000000
Si      -2.71500543      -2.71314837      -0.00157828       0.00000000
Si      -0.00161271      -2.70653463       2.72185512       0.00000000
Si       0.00184077      -2.71476108      -2.71420387       0.00000000
Si      -2.71446786       0.00030951      -2.71458129       0.00000000
Si      -2.71482624       2.71480995      -0.00126949       0.00000000
