10
Lattice="16.28999089631971 0.0 0.0 0.0 16.28999089631971 0.0 0.0 0.0 34.31052061344573" Properties=species:S:1:pos:R:3:initial_magmoms:R:1 pbc="T T T"
Si       0.83739789       0.00250866       2.14969256       0.00000000
Si      -1.60392969      -1.65923424      -0.41824548       0.00000000
Si       1.75811032      -0.33666543      -1.52925507       0.00000000
Si       2.82251033      -1.06319943       0.47777427       0.00000000
Si      -0.58435488       3.19388256       0.88912333       0.00000000
Si       0.53232562      -1.59009948      -3.05065302       0.00000000
Si      -1.39051440       2.81199609      -1.55666919       0.00000000
Si       3.41095400       1.24046721       0.60932088       0.00000000
Si      -0.09267381       1.94124672       3.13042503       0.00000000
Si      -0.38299419      -3.24761350      -1.74232352       0.00000000
