10
Lattice="16.28999089631971 0.0 0.0 0.0 16.28999089631971 0.0 0.0 0.0 34.31052061344573" Properties=species:S:1:pos:R:3:initial_magmoms:R:1 pbc="T T T"
Si       1.74441465       0.91095309      -1.36984830       0.00000000
Si      -0.89130735      -1.81239282      -1.30925589       0.00000000
Si      -1.83822876       1.68497244      -0.30512363       0.00000000
Si       0.80615952       0.38188647       2.44579252       0.00000000
Si       1.39051440      -2.81199609       1.55666919       0.00000000
Si      -0.68748687       2.27551752       2.69879844       0.00000000
Si      -2.25579033      -0.44202915      -2.78282495       0.00000000
Si       0.47004795       2.28929886      -2.80509249       0.00000000
Si       2.61040475       2.74986603      -0.08598221       0.00000000
Si      -2.87099847       2.02792581       1.83146230       0.00000000
