10
Lattice="16.28999089631971 0.0 0.0 0.0 16.28999089631971 0.0 0.0 0.0 34.31052061344573" Properties=species:S:1:pos:R:3:initial_magmoms:R:1 pbc="T T T"
Si      -2.12820705       0.27953640       0.96093529       0.00000000
Si       0.95794911      -2.13644979       0.28584111       0.00000000
Si      -0.52626474      -0.14019174      -2.30511931       0.00000000
Si       0.98546341       2.06267238       0.68226508       0.00000000
Si      -2.68377750      -2.00881764       0.83577044       0.00000000
Si      -0.23594436       2.15588376      -2.90473030       0.00000000
Si      -0.27580599       3.51275931      -0.88833419       0.00000000
Si       3.22451495      -1.85614776      -0.22003349       0.00000000
Si       1.31774275      -1.13345820      -3.46258536       0.00000000
Si      -1.89609084       0.67492728       3.33261704       0.00000000
