10
Lattice="16.28999089631971 0.0 0.0 0.0 16.28999089631971 0.0 0.0 0.0 34.31052061344573" Properties=species:S:1:pos:R:3:initial_magmoms:R:1 pbc="T T T"
Si      -1.35433431       1.32698340       1.34970801       0.00000000
Si      -1.36384767      -1.34452773      -1.34514471       0.00000000
Si       1.35469269       1.36518345      -1.34919336       0.00000000
Si       1.27436670      -1.37834577       1.43524419       0.00000000
Si      -2.30827671      -0.60432642       2.49996886       0.00000000
Si       0.39918645       2.20253832       2.65007747       0.00000000
Si       2.14035680       0.46056717       2.71911028       0.00000000
Si      -0.47004795      -2.28929886       2.80509249       0.00000000
Si       2.70235854      -2.70150102       0.02161564       0.00000000
Si      -0.00684180      -2.70511740      -2.70435675       0.00000000
