10
Lattice="16.28999089631971 0.0 0.0 0.0 16.28999089631971 0.0 0.0 0.0 34.31052061344573" Properties=species:S:1:pos:R:3:initial_magmoms:R:1 pbc="T T T"
Si      -1.35258543      -1.35961227      -1.36703484       0.00000000
Si       1.36179187       1.35773892      -1.36281464       0.00000000
Si       1.31800435      -1.35198855       1.42371585       0.00000000
Si      -1.42799184       1.32315525       1.41362855       0.00000000
Si      -2.70235854       2.70150102      -0.02161564       0.00000000
Si      -2.71081305      -2.71015101      -0.00411726       0.00000000
Si      -2.70920034      -0.00361638      -2.72597239       0.00000000
Si       0.00467523       2.71238274      -2.72748205       0.00000000
Si       2.72764321       2.71397916       0.03105104       0.00000000
Si       2.71638682      -2.72929176       0.01664061       0.00000000
