10
Lattice="16.28999089631971 0.0 0.0 0.0 16.28999089631971 0.0 0.0 0.0 34.31052061344573" Properties=species:S:1:pos:R:3:initial_magmoms:R:1 pbc="T T T"
Si       1.64561580      -0.88410717       1.40035037       0.00000000
Si      -0.03228678      -0.30416688      -2.35167871       0.00000000
Si       0.24474096       2.30097879       0.58996973       0.00000000
Si      -2.01442140      -1.10662857       0.74320060       0.00000000
Si      -2.06120628       2.70464499       0.58797972       0.00000000
Si       0.86297904       3.17005029      -1.53296061       0.00000000
Si      -3.18013380       0.87032583       1.55529677       0.00000000
Si      -1.01401992      -2.77808031       2.19594317       0.00000000
Si      -2.32319835      -0.51388434      -2.82722279       0.00000000
Si       0.16734717       1.83210372      -3.33477860       0.00000000
