10
Lattice="16.28999089631971 0.0 0.0 0.0 16.28999089631971 0.0 0.0 0.0 34.31052061344573" Properties=species:S:1:pos:R:3:initial_magmoms:R:1 pbc="T T T"
Si      -1.35639685       1.36008259      -1.35317338       0.00000000
Si      -1.35449092      -1.35687017       1.35849151       0.00000000
Si       1.35960131       1.35818806       1.35869738       0.00000000
Si       1.36292447      -1.36120331      -1.35958945       0.00000000
Si      -2.70406855      -0.00015752      -2.71543562       0.00000000
Si      -2.71071487       2.71430124       0.00010293       0.00000000
Si      -2.71268596       0.00068777       2.71585078       0.00000000
Si      -2.71332127      -2.71568423       0.00024017       0.00000000
Si       0.00301710      -2.71454393       2.71578216       0.00000000
Si       0.00247526       2.71597911       2.71526750       0.00000000
