10
Lattice="16.28999089631971 0.0 0.0 0.0 16.28999089631971 0.0 0.0 0.0 34.31052061344573" Properties=species:S:1:pos:R:3:initial_magmoms:R:1 pbc="T T T"
Si      -1.35234108       1.35430173       1.35667305       0.00000000
Si      -1.35573574      -1.35812988      -1.35636426       0.00000000
Si       1.35918547       1.35668007      -1.35629564       0.00000000
Si       1.35711664      -1.35464382       1.36466741       0.00000000
Si      -2.70703377      -0.01088172       2.70586641       0.00000000
Si      -2.71257237       2.71228500       0.00120087       0.00000000
Si       0.00882266       2.70682785       2.71835545       0.00000000
Si      -2.71369638      -0.00030951      -2.71375783       0.00000000
Si       0.00220404       2.71425609      -2.71338042       0.00000000
Si      -2.71387557      -2.71599912       0.00150966       0.00000000
