10
Lattice="16.28999089631971 0.0 0.0 0.0 16.28999089631971 0.0 0.0 0.0 34.31052061344573" Properties=species:S:1:pos:R:3:initial_magmoms:R:1 pbc="T T T"
Si       0.70185465       1.84303431       1.34562506       0.00000000
Si      -1.33034240       1.26439722      -1.54520947       0.00000000
Si      -1.90584203      -0.99274518       1.16141177       0.00000000
Si       1.38380292      -1.44083421      -1.50503183       0.00000000
Si       2.56401342       2.64618018       0.01972856       0.00000000
Si      -2.71307411       2.57948892      -0.16716095       0.00000000
Si      -3.64701239       0.74922597       1.09237897       0.00000000
Si      -0.94423356       3.61752030       1.04983390       0.00000000
Si       0.01949913       2.63005308      -2.90654876       0.00000000
Si      -2.69150615      -0.08812890      -2.90689186       0.00000000
