10
Lattice="16.28999089631971 0.0 0.0 0.0 16.28999089631971 0.0 0.0 0.0 34.31052061344573" Properties=species:S:1:pos:R:3:initial_magmoms:R:1 pbc="T T T"
Si      -1.35712604       1.35779105       1.35657012       0.00000000
Si       1.35693256       1.35718832      -1.35804548       0.00000000
Si       1.35862672      -1.35815878       1.35684461       0.00000000
Si      -1.35960131      -1.35818806      -1.35869738       0.00000000
Si      -0.00015313       2.71188101       2.71478715       0.00000000
Si      -2.71599816       0.00189453      -2.71187075       0.00000000
Si      -2.71337547       2.71479692       0.00044604       0.00000000
Si       0.00277744      -2.71481388       2.71375783       0.00000000
Si      -2.71409223      -2.71505823      -0.00020586       0.00000000
Si      -2.71425513      -0.00079984       2.71547336       0.00000000
