10
Lattice="16.28999089631971 0.0 0.0 0.0 16.28999089631971 0.0 0.0 0.0 34.31052061344573" Properties=species:S:1:pos:R:3:initial_magmoms:R:1 pbc="T T T"
Si       1.35457052      -1.35360126       1.36048152       0.00000000
Si      -1.35260661      -1.35848826      -1.36808474       0.00000000
Si      -1.36292447       1.36120331       1.35958945       0.00000000
Si       1.37138180       1.34475418      -1.38605660       0.00000000
Si      -2.54532783       0.18932238      -2.71928869       0.00000000
Si       2.71665887      -2.71129131       0.00202432       0.00000000
Si      -2.71471125      -2.71324611       0.00078914       0.00000000
Si      -0.00245979      -2.71078632       2.71804665       0.00000000
Si       2.71273298       0.00340461       2.71801234       0.00000000
Si       2.71527421       2.71770210       0.00147535       0.00000000
