10
Lattice="16.28999089631971 0.0 0.0 0.0 16.28999089631971 0.0 0.0 0.0 34.31052061344573" Properties=species:S:1:pos:R:3:initial_magmoms:R:1 pbc="T T T"
Si       1.30131036      -1.33537275      -1.36120205       0.00000000
Si      -1.03431726      -1.69155360       1.24787433       0.00000000
Si       1.61969841       0.61885125       1.64323468       0.00000000
Si      -1.41247006       1.39420801      -1.34679162       0.00000000
Si      -1.77171832       0.13328301       2.60495911       0.00000000
Si       2.41781067       2.41812737       0.03448209       0.00000000
Si       2.47392972      -2.66289372       0.21776900       0.00000000
Si       2.64973140       0.03178179      -2.71022385       0.00000000
Si      -0.07058457      -2.67902082      -2.70850832       0.00000000
Si       0.61177095      -3.46603959       1.54366550       0.00000000
