10
Lattice="16.28999089631971 0.0 0.0 0.0 16.28999089631971 0.0 0.0 0.0 34.31052061344573" Properties=species:S:1:pos:R:3:initial_magmoms:R:1 pbc="T T T"
Si      -0.75821383      -1.88447607       1.13526714       0.00000000
Si      -1.07204068       0.13002678      -2.07115573       0.00000000
Si       2.28064398      -0.54242442      -0.40153625       0.00000000
Si      -0.67563982       1.80797890       1.40443333       0.00000000
Si       2.43658815       0.85942784       2.37233365       0.00000000
Si       0.76741538       0.91652250      -3.29974754       0.00000000
Si       2.71192173      -1.44392931       1.73854936       0.00000000
Si      -2.79588106       2.32834340       0.53812651       0.00000000
Si      -2.78786638       1.79662966      -1.78047684       0.00000000
Si       2.90417631       1.29663254      -2.05616203       0.00000000
