10
Lattice="10.86 0.0 0.0 0.0 10.86 0.0 0.0 0.0 10.86" Properties=species:S:1:pos:R:3:initial_magmoms:R:1 pbc="T T T"
Si      -1.18127478       1.17423750       1.50433806       0.00000000
Si       1.42841580       1.51849950      -0.97106862       0.00000000
Si       0.66623928      -2.28080634       0.74155338       0.00000000
Si      -1.43097876      -1.63226886      -1.53059754       0.00000000
Si      -2.55426114       0.00760200      -2.47409262       0.00000000
Si       0.16073886      -2.70739800      -2.47409262       0.00000000
Si       0.16073886       2.72260200      -2.47409262       0.00000000
Si      -2.55426114      -2.70739800       0.24090738       0.00000000
Si      -2.55426114       2.72260200       0.24090738       0.00000000
Si       2.87573886       0.00760200      -2.47409262       0.00000000
