10
Lattice="16.290000149 0.0 0.0 0.0 16.290000149 0.0 0.0 0.0 29.1751946751" Properties=species:S:1:pos:R:3:initial_magmoms:R:1 pbc="T T T"
Si      -1.37744169       1.45106271      -1.16006409       0.00000000
Si       1.52730154      -1.26382708      -1.21482593       0.00000000
Si       0.84605374       1.66177224       1.39600389       0.00000000
Si      -0.92137870      -1.73089397       1.27930311       0.00000000
H        0.23180670       2.96603436       0.95306608       0.00000000
Si       2.55907757      -2.09047943       0.73862840       0.00000000
Si       0.11518659      -2.65779497      -2.51472673       0.00000000
Si      -2.61022632       0.09074084      -2.60446963       0.00000000
Si       0.08926920       1.07679996       3.54930831       0.00000000
Si       0.73006894      -3.38498058       1.37453095       0.00000000
