10
Lattice="16.290000149 0.0 0.0 0.0 16.290000149 0.0 0.0 0.0 29.1751946751" Properties=species:S:1:pos:R:3:initial_magmoms:R:1 pbc="T T T"
Si       1.03865041       1.10289817      -0.22041860       0.00000000
H       -0.49357071       1.55364247       1.82342049       0.00000000
Si      -2.20951046      -0.78240871      -1.13794929       0.00000000
Si      -0.95773798       0.26562474       2.47035126       0.00000000
Si       1.04946697      -1.12166425       2.39207421       0.00000000
Si      -0.18617841      -2.70386309       0.97310944       0.00000000
Si      -0.53335089      -2.46935225      -1.39040225       0.00000000
Si       2.20328116       0.94216474       1.79897168       0.00000000
Si       2.52541266       0.02625948      -1.64661881       0.00000000
Si      -0.22063176       2.74414827      -1.37628146       0.00000000
