10
Lattice="16.290000149 0.0 0.0 0.0 16.290000149 0.0 0.0 0.0 29.1751946751" Properties=species:S:1:pos:R:3:initial_magmoms:R:1 pbc="T T T"
Si       1.67615957      -1.68694355      -0.25245296       0.00000000
Si      -1.86577517      -0.85346569      -1.23936227       0.00000000
Si      -0.63074881       0.36888705       2.32377508       0.00000000
Si       0.69103810       1.85789081      -1.41858549       0.00000000
H        2.20951046       0.78240871       1.13794929       0.00000000
H       -1.06803757       2.48544677       0.11594222       0.00000000
H       -2.59740794      -0.29445804       1.29251947       0.00000000
H        0.57515104      -1.65042137       2.53062721       0.00000000
H       -0.49394538       2.37436526      -2.21696469       0.00000000
H       -3.25591491       0.11049507       1.19597876       0.00000000
