10
Lattice="16.290000149 0.0 0.0 0.0 16.290000149 0.0 0.0 0.0 29.1751946751" Properties=species:S:1:pos:R:3:initial_magmoms:R:1 pbc="T T T"
Si       1.24844932       1.38109879      -1.41967081       0.00000000
Si       1.37655388      -1.26302887       1.41738931       0.00000000
Si      -0.80461198      -1.85885192      -1.18692861       0.00000000
Si      -1.42482115       1.37643985       1.29331012       0.00000000
Si      -2.67766877      -2.66031992       0.01184513       0.00000000
Si      -0.04901661      -2.65391795       2.69814534       0.00000000
Si       2.66216069      -2.71933859       0.09777191       0.00000000
Si      -0.07934859       2.74626597       2.65514111       0.00000000
Si       2.65020383       2.75102265      -0.08324850       0.00000000
Si       0.82743427      -3.59653881      -1.10249560       0.00000000
