10
Lattice="16.290000149 0.0 0.0 0.0 16.290000149 0.0 0.0 0.0 29.1751946751" Properties=species:S:1:pos:R:3:initial_magmoms:R:1 pbc="T T T"
Si      -0.92646118       0.81695491       1.99920104       0.00000000
Si       1.36414090       1.38453110      -1.33453175       0.00000000
Si      -1.87481612      -0.89284188      -1.12248644       0.00000000
Si       1.84350674      -1.17461164       0.93191407       0.00000000
H        2.64618020       1.42160714      -0.51456291       0.00000000
H       -2.92594467       0.22324305      -1.11685563       0.00000000
Si       0.52906500      -2.60088260       2.27954549       0.00000000
Si       1.96703381      -0.13456192      -3.09189961       0.00000000
Si      -0.64019244      -1.00946606       3.56739693       0.00000000
Si       0.41103743       2.79338805       2.48759380       0.00000000
