10
Lattice="16.290000149 0.0 0.0 0.0 16.290000149 0.0 0.0 0.0 29.1751946751" Properties=species:S:1:pos:R:3:initial_magmoms:R:1 pbc="T T T"
Si      -1.41436297      -1.28307209       1.38086196       0.00000000
Si       1.32370912      -1.39439795      -1.36472808       0.00000000
Si       1.39955536       1.37127592       1.31364232       0.00000000
Si      -1.34744365       1.33361344      -1.40709046       0.00000000
Si       0.00700470       2.72443737       2.62763473       0.00000000
Si      -2.64277559      -2.71744895      -0.04510485       0.00000000
Si       2.58492980      -2.78648598       0.06558584       0.00000000
Si       2.69066819      -0.03534930      -2.74176809       0.00000000
Si      -2.71754669       2.72070695      -0.09604474       0.00000000
Si       2.74005947       2.71969697      -0.05861297       0.00000000
