10
Lattice="16.290000149 0.0 0.0 0.0 16.290000149 0.0 0.0 0.0 29.1751946751" Properties=species:S:1:pos:R:3:initial_magmoms:R:1 pbc="T T T"
H       -0.17498718       1.37878887       0.62995080       0.00000000
Si       0.83321722      -1.25510867       1.70785171       0.00000000
Si       1.89281657       0.01369989      -1.33867463       0.00000000
Si      -1.89359849      -0.56317137      -1.28992288       0.00000000
Si      -2.63684603       1.61962023      -0.88502953       0.00000000
Si       0.66543022       1.12126026      -2.96332452       0.00000000
Si      -0.69765184       2.65015822      -1.78169996       0.00000000
Si       1.87406678       0.59379983       2.66747346       0.00000000
Si       2.33393348      -2.27701296      -1.03674054       0.00000000
Si      -0.99479773      -2.28126465       2.65682160       0.00000000
