10
Lattice="16.290000149 0.0 0.0 0.0 16.290000149 0.0 0.0 0.0 29.1751946751" Properties=species:S:1:pos:R:3:initial_magmoms:R:1 pbc="T T T"
Si       1.34478512       1.32871015      -1.38221569       0.00000000
Si      -1.32990258      -1.36102951      -1.37783941       0.00000000
Si      -1.35606432       1.38813607       1.32898847       0.00000000
Si       1.36812869      -1.34936587       1.36379448       0.00000000
Si      -2.62450147      -2.67359627       0.09336062       0.00000000
Si       2.70710155       2.69622308      -0.01890553       0.00000000
Si      -2.69625892       0.03500721       2.71513114       0.00000000
Si      -0.04006200       2.66879072      -2.75461393       0.00000000
Si       0.00855388       2.71777475       2.70833332       0.00000000
Si       2.72858806       0.00500103       2.71688165       0.00000000
