10
Lattice="16.290000149 0.0 0.0 0.0 16.290000149 0.0 0.0 0.0 29.1751946751" Properties=species:S:1:pos:R:3:initial_magmoms:R:1 pbc="T T T"
Si       0.71539165      -0.40698936       2.10230910       0.00000000
Si      -1.02493423      -1.74897587      -1.13322291       0.00000000
Si      -1.66633670       1.61984503      -0.07159593       0.00000000
Si       1.73438003       0.53473554      -1.53884564       0.00000000
H        0.63729739      -0.44673696      -2.33319867       0.00000000
Si      -0.23229540       3.01909089      -1.25240358       0.00000000
H       -0.50226957      -3.02034522       1.27842786       0.00000000
H        3.15752331       1.06780951      -0.53869079       0.00000000
Si      -1.20273958      -1.20466180       3.19422868       0.00000000
Si      -1.95853043      -0.70679053      -2.98217170       0.00000000
