10
Lattice="16.290000149 0.0 0.0 0.0 16.290000149 0.0 0.0 0.0 29.1751946751" Properties=species:S:1:pos:R:3:initial_magmoms:R:1 pbc="T T T"
Si      -1.46485057      -1.38219022       1.21532191       0.00000000
Si       1.33859818      -1.33076269      -1.40828665       0.00000000
Si      -1.34671060       1.35252613      -1.38675535       0.00000000
Si       1.41211495       1.39396789       1.29990080       0.00000000
Si      -0.11518659       2.65779497       2.51472673       0.00000000
Si      -0.04860936      -2.60542262       2.59341223       0.00000000
Si       2.75849976       2.68490153      -0.07092490       0.00000000
Si      -2.80538238      -0.07996761       2.63819615       0.00000000
Si      -0.01014867       2.70321149      -2.75650157       0.00000000
Si       2.75801106      -2.70340697      -0.15506616       0.00000000
