10
Lattice="16.290000149 0.0 0.0 0.0 16.290000149 0.0 0.0 0.0 29.1751946751" Properties=species:S:1:pos:R:3:initial_magmoms:R:1 pbc="T T T"
Si       1.43240578      -1.21135699       1.38442134       0.00000000
Si      -1.43523698       1.24685290       1.36621602       0.00000000
Si      -1.35928436      -1.41103981      -1.31230026       0.00000000
Si       1.36654531       1.42838866      -1.29943400       0.00000000
H       -1.18642515      -1.45321462       3.05300907       0.00000000
Si      -0.04568856      -2.41626314       2.76840505       0.00000000
Si       2.57348771      -2.64015290      -0.07912313       0.00000000
Si      -0.01565469       2.68325624       2.53646225       0.00000000
Si       2.56573367       0.02575449      -2.77353988       0.00000000
Si      -2.72700141       2.65976606       0.00781895       0.00000000
