10
Lattice="16.290000149 0.0 0.0 0.0 16.290000149 0.0 0.0 0.0 29.1751946751" Properties=species:S:1:pos:R:3:initial_magmoms:R:1 pbc="T T T"
Si       1.71561395      -1.63323541      -0.10847337       0.00000000
Si      -2.05294727      -1.01120176      -0.72231947       0.00000000
Si       1.39123117       1.73938106      -0.91505081       0.00000000
Si      -1.00813924       1.23999481       1.84197592       0.00000000
H        0.79995304      -1.46740321      -2.64306841       0.00000000
H       -0.61040260       0.57006856      -3.10438659       0.00000000
Si      -2.36803334       2.64274301       0.52658309       0.00000000
Si       2.15857163      -1.87978457       2.17475986       0.00000000
Si      -3.48069248       0.93188575      -0.71838082       0.00000000
Si       3.57989043      -0.73049248      -1.38695958       0.00000000
