10
Lattice="16.290000149 0.0 0.0 0.0 16.290000149 0.0 0.0 0.0 29.1751946751" Properties=species:S:1:pos:R:3:initial_magmoms:R:1 pbc="T T T"
H       -1.14073658       0.96304852       0.28460402       0.00000000
H        1.50764440      -1.47261601      -0.62773349       0.00000000
Si       1.47809434       1.20490615      -1.38398371       0.00000000
Si       1.29286075       0.15530886       2.02595469       0.00000000
Si      -1.31661108      -1.70038280      -1.13794929       0.00000000
H       -2.26660202      -0.83914678       2.21778160       0.00000000
Si       2.12189144      -2.77687813      -0.18479568       0.00000000
Si       0.04568856       2.41626314      -2.76840505       0.00000000
Si      -2.60937621      -0.35409573      -2.63705832       0.00000000
Si       0.73644321       2.54137034       2.76589598       0.00000000
