10
Lattice="16.290000149 0.0 0.0 0.0 16.290000149 0.0 0.0 0.0 29.1751946751" Properties=species:S:1:pos:R:3:initial_magmoms:R:1 pbc="T T T"
Si       1.38741931       1.35949825      -1.30404368       0.00000000
Si       1.38230425      -1.34583094       1.33616557       0.00000000
Si      -1.31792617       1.37054287       1.38891432       0.00000000
Si      -1.33081156      -1.34571691      -1.41461766       0.00000000
Si       0.01710450       2.71995924      -2.61791939       0.00000000
Si       0.01373247      -2.68970708       2.67904143       0.00000000
Si      -2.67750099      -2.69337233      -0.04606763       0.00000000
Si      -2.66380110       2.73146650       0.03323055       0.00000000
Si       2.71085150       0.00716760      -2.68843584       0.00000000
Si      -2.69347333       0.02233359       2.73969666       0.00000000
