10
Lattice="16.290000149 0.0 0.0 0.0 16.290000149 0.0 0.0 0.0 29.1751946751" Properties=species:S:1:pos:R:3:initial_magmoms:R:1 pbc="T T T"
Si      -1.35580042       1.35715249      -1.30456883       0.00000000
Si       1.38735415       1.35166276       1.29482431       0.00000000
Si       1.35827650      -1.34796493      -1.33575711       0.00000000
Si      -1.34804638      -1.30875490       1.38984792       0.00000000
H       -0.44336493      -2.20942901       2.19823422       0.00000000
Si       2.61317666      -0.17645328       2.54159708       0.00000000
Si      -2.66708027      -0.07206696      -2.62810154       0.00000000
Si      -2.55498878       2.75978667       0.16953706       0.00000000
Si       2.59841792      -2.73676890       0.03725672       0.00000000
Si       0.01479132       2.61099380      -2.73774192       0.00000000
