10
Lattice="16.290000149 0.0 0.0 0.0 16.290000149 0.0 0.0 0.0 29.1751946751" Properties=species:S:1:pos:R:3:initial_magmoms:R:1 pbc="T T T"
Si       1.24014142      -1.38880396       1.37301384       0.00000000
Si      -1.35827650       1.34796493       1.33575711       0.00000000
Si      -1.29311650      -1.43681059      -1.31337974       0.00000000
Si       1.45741744       1.29810124      -1.30261409       0.00000000
Si       2.67789683      -0.05668920       2.58282163       0.00000000
Si      -2.64810242      -0.07012845      -2.65030386       0.00000000
Si       0.09446571       2.62438418      -2.68309678       0.00000000
Si       0.02907765       2.69962769       2.63058143       0.00000000
Si      -2.60081255      -2.78383071       0.10958203       0.00000000
Si       0.13193271      -2.79901136      -2.61205518       0.00000000
