10
Lattice="16.290000149 0.0 0.0 0.0 16.290000149 0.0 0.0 0.0 29.1751946751" Properties=species:S:1:pos:R:3:initial_magmoms:R:1 pbc="T T T"
Si      -1.37132479       1.34594497       1.33806195       0.00000000
Si      -1.38582289      -1.35013150      -1.32487477       0.00000000
Si       1.36280512      -1.36559071       1.33564041       0.00000000
Si       1.37036368       1.35858601      -1.33759515       0.00000000
Si       0.00734679       2.68141547       2.68251327       0.00000000
Si      -0.05748741      -2.77340185      -2.60875838       0.00000000
Si      -0.00175932      -2.71307509       2.68569337       0.00000000
Si       2.69816159      -0.00063531      -2.70287756       0.00000000
Si      -2.72095130      -0.01876608       2.69488356       0.00000000
Si       2.72264546      -0.02169828       2.69879303       0.00000000
