10
Lattice="16.290000149 0.0 0.0 0.0 16.290000149 0.0 0.0 0.0 29.1751946751" Properties=species:S:1:pos:R:3:initial_magmoms:R:1 pbc="T T T"
Si      -0.34787295       0.88086547       2.13577013       0.00000000
Si      -1.85510522      -0.93097351      -1.10705276       0.00000000
Si       1.05497299       1.76231738      -1.18247064       0.00000000
Si       1.60176313      -1.77696209      -0.09026805       0.00000000
Si       2.13786704       0.34272531      -2.68087946       0.00000000
Si      -0.67199509      -2.38228220      -2.51921971       0.00000000
Si       1.27350334       2.56810223       2.20377750       0.00000000
Si       2.22814622      -2.18261567       2.05723050       0.00000000
Si       3.43271028      -0.95107537      -1.25441667       0.00000000
Si      -3.15711606      -2.16746597       0.39325245       0.00000000
