10
Lattice="16.290000149 0.0 0.0 0.0 16.290000149 0.0 0.0 0.0 29.1751946751" Properties=species:S:1:pos:R:3:initial_magmoms:R:1 pbc="T T T"
Si      -1.41941287       1.37264428      -1.25322049       0.00000000
Si      -1.30201084      -1.23649246       1.50030521       0.00000000
Si       1.18311013      -1.45130869      -1.41216695       0.00000000
Si       1.85510522       0.93097351       1.10705276       0.00000000
Si       3.45686835      -0.84598858       1.01678471       0.00000000
Si      -0.04333140       2.69304653      -2.61672321       0.00000000
Si       2.57805542      -2.73434169      -0.05239865       0.00000000
Si       2.56704338      -0.11590335      -2.75308807       0.00000000
Si       0.14428053      -2.58813893       2.78404295       0.00000000
Si      -2.77565313      -0.00902466      -2.60420705       0.00000000
