10
Lattice="16.290000149 0.0 0.0 0.0 16.290000149 0.0 0.0 0.0 29.1751946751" Properties=species:S:1:pos:R:3:initial_magmoms:R:1 pbc="T T T"
Si      -1.30434031       1.42315957       1.30313429       0.00000000
Si       1.27586539       1.47175264      -1.32840496       0.00000000
Si       1.44420625      -1.41193576       1.22637931       0.00000000
Si      -1.37619550      -1.03272085      -1.63068916       0.00000000
Si       0.33575319      -1.47105217      -3.15929431       0.00000000
Si      -0.41490630       2.40298679      -2.63912976       0.00000000
Si       2.25699581       0.00609246      -2.82485905       0.00000000
Si      -2.21832335       0.81181216      -2.75798950       0.00000000
Si       2.39432051      -2.68786631      -0.52200258       0.00000000
Si      -2.60105690      -0.06478533       2.57626597       0.00000000
