10
Lattice="16.290000149 0.0 0.0 0.0 16.290000149 0.0 0.0 0.0 29.1751946751" Properties=species:S:1:pos:R:3:initial_magmoms:R:1 pbc="T T T"
Si      -1.67615957       1.68694355       0.25245296       0.00000000
Si       0.34717248      -0.23451084       2.36351170       0.00000000
Si       1.63918126       1.05920839      -1.42646279       0.00000000
Si      -1.07228926      -1.69165136      -1.38019093       0.00000000
H        1.88799310      -1.64085914       0.26033026       0.00000000
H        0.53335089       2.46935225       1.39040225       0.00000000
H       -1.10100853       0.03652218       2.78308017       0.00000000
Si      -2.41654007      -0.27543132      -2.74570675       0.00000000
Si       0.34741683       2.47212155      -2.78485986       0.00000000
Si      -3.54193473       0.83347786      -0.98690931       0.00000000
