10
Lattice="16.290000149 0.0 0.0 0.0 16.290000149 0.0 0.0 0.0 29.1751946751" Properties=species:S:1:pos:R:3:initial_magmoms:R:1 pbc="T T T"
Si       1.37451763      -1.34649069       1.33657402       0.00000000
Si       1.36456444       1.34748438      -1.35005296       0.00000000
Si      -1.35001747      -1.36980168      -1.35133667       0.00000000
Si      -1.35018037       1.34976498       1.37298466       0.00000000
Si       0.01935252      -2.70126484       2.67075567       0.00000000
Si       0.00175932       2.71307509      -2.68569337       0.00000000
Si      -2.73269639      -0.01060153      -2.67349814       0.00000000
Si      -2.71919198       2.69430901       0.00919019       0.00000000
Si       2.72440478       2.69137681       0.01309966       0.00000000
Si       2.72717408      -0.01514807      -2.69561294       0.00000000
