10
Lattice="16.290000149 0.0 0.0 0.0 16.290000149 0.0 0.0 0.0 29.1751946751" Properties=species:S:1:pos:R:3:initial_magmoms:R:1 pbc="T T T"
Si       1.34794864       1.02762208      -1.62645875       0.00000000
Si       1.43433451      -1.62569168       0.93045531       0.00000000
Si      -1.84008584      -1.18017630      -0.99767496       0.00000000
Si      -0.10935477       1.73227862       1.79372014       0.00000000
H       -2.26178507       1.49146354       0.50703571       0.00000000
Si       2.77324221       2.29913804      -0.21998097       0.00000000
Si       0.63651547       0.39472299       3.57008105       0.00000000
Si       2.63402786      -0.48098832       2.61707331       0.00000000
Si      -2.90398575       2.33344478      -0.57323422       0.00000000
Si       0.14348232      -3.06447483       2.21247171       0.00000000
