10
Lattice="16.290000149 0.0 0.0 0.0 16.290000149 0.0 0.0 0.0 29.1751946751" Properties=species:S:1:pos:R:3:initial_magmoms:R:1 pbc="T T T"
Si      -1.32816721       1.41092578      -1.30897428       0.00000000
Si       1.33391204       1.37754757       1.34491812       0.00000000
Si      -1.38609445      -1.33123510       1.36709127       0.00000000
Si       1.34975732      -1.32605488      -1.40805325       0.00000000
Si      -2.71654763       0.06462243      -2.58246570       0.00000000
Si       2.64364434      -2.67918374       0.02374861       0.00000000
Si       2.67681078       0.01940139       2.70801239       0.00000000
Si       2.66446296       2.73515619      -0.03854043       0.00000000
Si      -0.05477789       2.73859337       2.66748805       0.00000000
Si      -2.75491058      -2.68006340       0.02958365       0.00000000
