10
Lattice="16.290000149 0.0 0.0 0.0 16.290000149 0.0 0.0 0.0 29.1751946751" Properties=species:S:1:pos:R:3:initial_magmoms:R:1 pbc="T T T"
Si      -1.30670236      -1.31425441      -1.44618522       0.00000000
Si      -1.32370912       1.39439795       1.36472808       0.00000000
Si       1.26122068      -1.39208803       1.43031392       0.00000000
Si       1.36695907       1.35904865      -1.37704001       0.00000000
Si      -2.66186747      -2.66902856      -0.11200357       0.00000000
Si       2.66248649       0.02449853       2.68648110       0.00000000
Si       2.69118947      -2.67404588       0.01858460       0.00000000
Si      -2.67115277       2.72801139      -0.04236238       0.00000000
Si       0.07584624       2.76567387       2.67837040       0.00000000
Si      -2.68121999       0.03223628      -2.78275924       0.00000000
