10
Lattice="16.290000149 0.0 0.0 0.0 16.290000149 0.0 0.0 0.0 29.1751946751" Properties=species:S:1:pos:R:3:initial_magmoms:R:1 pbc="T T T"
Si       1.29085219       1.43878315      -1.28201640       0.00000000
Si      -1.03272085       1.61927000       1.31492602       0.00000000
Si       1.52487433      -0.99188182       1.51025395       0.00000000
Si      -1.57890826      -1.30784266      -1.20242647       0.00000000
Si       2.49054554       2.58348651       0.40460160       0.00000000
Si      -1.55071027       0.37818864       3.25583502       0.00000000
H        0.66920950      -2.25543197      -2.83553717       0.00000000
Si       2.59470380       0.02922426      -2.61730671       0.00000000
Si       3.05175234       0.85379149       1.93825406       0.00000000
Si       2.52312554      -2.75488338       0.24300020       0.00000000
