10
Lattice="16.290000149 0.0 0.0 0.0 16.290000149 0.0 0.0 0.0 29.1751946751" Properties=species:S:1:pos:R:3:initial_magmoms:R:1 pbc="T T T"
Si       1.36000324       1.35031069      -1.35361233       0.00000000
Si       1.37055916      -1.34234488       1.35687995       0.00000000
Si      -1.33845349       1.36317979       1.37254703       0.00000000
Si      -1.34835589      -1.37826433      -1.35130749       0.00000000
Si      -2.68780115      -0.04818582       2.67641566       0.00000000
Si       2.66923055      -2.70019784      -0.06077193       0.00000000
Si      -0.02904833       2.69946479      -2.68379698       0.00000000
Si      -2.69115689      -0.02047653      -2.72044103       0.00000000
Si       2.67815747      -0.01257588      -2.74445221       0.00000000
Si       2.72679941       0.03932406       2.70786652       0.00000000
