10
Lattice="16.290000149 0.0 0.0 0.0 16.290000149 0.0 0.0 0.0 29.1751946751" Properties=species:S:1:pos:R:3:initial_magmoms:R:1 pbc="T T T"
Si       0.15750801      -0.79382800      -1.27714415       0.00000000
H       -1.41035563       2.03747177      -0.46131818       0.00000000
Si       0.91566091      -0.16583220       2.53459504       0.00000000
H       -1.29885058      -2.67761990       0.42858361       0.00000000
Si      -2.05024313      -0.71662969      -2.09130713       0.00000000
Si       1.01092483      -2.87829642      -0.48888874       0.00000000
Si      -0.79995304       1.46740321       2.64306841       0.00000000
Si       2.77993740       0.73691074       1.25610883       0.00000000
Si       0.86306050      -2.46034388       1.86855452       0.00000000
Si       1.23585715       0.37453968      -2.98290108       0.00000000
