10
Lattice="16.290000149 0.0 0.0 0.0 16.290000149 0.0 0.0 0.0 29.1751946751" Properties=species:S:1:pos:R:3:initial_magmoms:R:1 pbc="T T T"
Si       1.35198042       1.35268903       1.36125623       0.00000000
Si       1.38868993      -1.36104580      -1.32256992       0.00000000
Si      -1.33810948      -1.35726652       1.38080361       0.00000000
Si      -1.34514676       1.38093589      -1.35469181       0.00000000
Si      -2.68918580       2.71166600       0.03203436       0.00000000
Si       0.05477789      -2.73859337      -2.66748805       0.00000000
Si      -2.70168023       0.03170034      -2.70909188       0.00000000
Si       2.71057457       2.70453098      -0.00151711       0.00000000
Si       2.69081480      -0.00643455       2.72443803       0.00000000
Si      -2.69685839      -2.72246627       0.04948113       0.00000000
