10
Lattice="16.290000149 0.0 0.0 0.0 16.290000149 0.0 0.0 0.0 29.1751946751" Properties=species:S:1:pos:R:3:initial_magmoms:R:1 pbc="T T T"
Si       1.34785090       1.36194175       1.35043224       0.00000000
Si      -1.34289874       1.35814618      -1.36309427       0.00000000
Si       1.35878149      -1.35550720      -1.35416666       0.00000000
Si      -1.36801955      -1.36489024       1.34401369       0.00000000
Si      -0.03316644      -2.69858513      -2.68426379       0.00000000
Si       2.69094512      -0.02117700       2.69394995       0.00000000
Si      -2.67681078      -0.01940139      -2.70801239       0.00000000
Si      -0.04077387       2.71275743       2.68391368       0.00000000
Si       2.69620679       2.70945056      -0.02792066       0.00000000
Si       2.68894145      -2.72538218       0.01808862       0.00000000
