10
Lattice="16.290000149 0.0 0.0 0.0 16.290000149 0.0 0.0 0.0 29.1751946751" Properties=species:S:1:pos:R:3:initial_magmoms:R:1 pbc="T T T"
Si       0.27406785      -0.81964765      -2.15476318       0.00000000
Si      -2.26777490       0.48597957      -0.11961830       0.00000000
Si       1.28471575       1.98804628       0.11524202       0.00000000
Si       1.03065691      -1.54509022       1.48096206       0.00000000
Si      -2.55713418       1.22976632       2.08465519       0.00000000
Si       3.35266611       1.26332209       0.96044741       0.00000000
Si       2.57201672      -0.23384295       2.67104742       0.00000000
Si       1.19544655       0.91124632      -3.43406629       0.00000000
Si       1.92551548      -2.47373426      -2.05953534       0.00000000
Si       2.38948727      -2.89509141       0.15314060       0.00000000
