10
Lattice="16.290000149 0.0 0.0 0.0 16.290000149 0.0 0.0 0.0 29.1751946751" Properties=species:S:1:pos:R:3:initial_magmoms:R:1 pbc="T T T"
Si      -1.48676225       1.07663869       1.42620022       0.00000000
Si      -1.41958229      -1.43640334      -1.17024623       0.00000000
Si       1.56272578      -1.07665498       1.36516571       0.00000000
Si       1.31238106       1.48861279      -1.27017128       0.00000000
H       -2.52541266      -0.02625948       1.64661881       0.00000000
Si       1.98781333       0.73741573       2.84919116       0.00000000
Si      -0.32213149       0.91590526       3.44559049       0.00000000
Si       0.01565469      -2.68325624      -2.53646225       0.00000000
Si      -2.71134672      -0.02349018      -2.52864330       0.00000000
Si       2.81699063       0.15413598      -2.51834445       0.00000000
