10
Lattice="16.290000149 0.0 0.0 0.0 16.290000149 0.0 0.0 0.0 29.1751946751" Properties=species:S:1:pos:R:3:initial_magmoms:R:1 pbc="T T T"
H       -1.13223646       0.07027506       1.00251804       0.00000000
Si       0.22506264      -2.13219812      -0.91400050       0.00000000
Si       2.05957730       0.70498234       0.89745816       0.00000000
Si      -0.22705002       1.51299892      -1.83794974       0.00000000
H       -0.45310635       0.98494228       2.62083691       0.00000000
H       -2.05755734       1.83379790       1.45096996       0.00000000
Si       2.34896915      -1.55048221      -1.91648936       0.00000000
H        2.44587836      -2.38764161       0.64252531       0.00000000
Si       3.31939704       0.44725824      -1.03945384       0.00000000
Si       1.72610471       2.82310590       1.83491552       0.00000000
