10
Lattice="16.290000149 0.0 0.0 0.0 16.290000149 0.0 0.0 0.0 29.1751946751" Properties=species:S:1:pos:R:3:initial_magmoms:R:1 pbc="T T T"
Si       1.41941287      -1.37264428       1.25322049       0.00000000
Si       1.37608147       1.32040225      -1.36350272       0.00000000
Si      -1.33859818       1.33076269       1.40828665       0.00000000
Si      -1.35624025      -1.38166894      -1.35098656       0.00000000
Si       0.11740203      -2.60913674       2.75352570       0.00000000
Si      -2.68530878       2.68328882       0.02153129       0.00000000
Si       0.00267156       2.67250484      -2.70897518       0.00000000
Si      -2.80344875      -0.05142753       2.62360856       0.00000000
Si       2.78458005       2.64585440      -0.00697287       0.00000000
Si       0.07351677       2.72473058       2.70818745       0.00000000
