10
Lattice="16.290000149 0.0 0.0 0.0 16.290000149 0.0 0.0 0.0 29.1751946751" Properties=species:S:1:pos:R:3:initial_magmoms:R:1 pbc="T T T"
Si      -0.84212785       1.84453301      -1.12730035       0.00000000
Si       1.71194870      -0.43833132      -1.52860515       0.00000000
Si       1.37619550       1.03272085       1.63068916       0.00000000
Si      -1.39123117      -1.73938106       0.91505081       0.00000000
H        1.10384299      -0.51360741      -2.92516337       0.00000000
H       -2.00163377      -1.16931250      -2.18933578       0.00000000
Si       2.18865926      -2.46987353      -0.47190877       0.00000000
Si       0.32438277      -3.37261647       0.80657743       0.00000000
Si       2.65206089       2.50447349       0.30228419       0.00000000
Si      -2.56552841       2.59923242       0.25195698       0.00000000
