10
Lattice="16.290000149 0.0 0.0 0.0 16.290000149 0.0 0.0 0.0 29.1751946751" Properties=species:S:1:pos:R:3:initial_magmoms:R:1 pbc="T T T"
Si      -1.40415566       1.31922937       1.31267953       0.00000000
Si       1.37004766      -1.23851242       1.44510574       0.00000000
Si       1.33119601       1.39795894      -1.34185473       0.00000000
Si      -1.39229654      -1.37529955      -1.31127912       0.00000000
Si       2.56923602      -2.64114659      -0.02900014       0.00000000
Si      -0.11601249       2.72820036       2.63274039       0.00000000
Si       2.62986740       0.04010598      -2.75950661       0.00000000
Si       0.00350235      -2.66690108       2.74453974       0.00000000
Si      -2.73205131      -0.00974142      -2.68718131       0.00000000
Si      -2.72716431       2.69211800      -0.02231902       0.00000000
