10
Lattice="16.290000149 0.0 0.0 0.0 16.290000149 0.0 0.0 0.0 29.1751946751" Properties=species:S:1:pos:R:3:initial_magmoms:R:1 pbc="T T T"
Si       0.07333758      -0.69765184      -2.23051365       0.00000000
Si      -0.98906365      -1.78515270       1.15496427       0.00000000
Si       1.83472643       0.87720022       1.20026751       0.00000000
Si      -1.63204624       1.73768690      -0.08443301       0.00000000
H        2.53519643      -0.93848320      -0.71553332       0.00000000
Si      -2.30304764      -0.46097442       2.55611174       0.00000000
Si       0.54911961       2.33350994       2.51988490       0.00000000
Si      -2.12760434      -0.31027563      -3.03370676       0.00000000
Si      -2.07500393       1.98423605      -2.36766624       0.00000000
Si       2.01253178       0.33288615      -3.12718409       0.00000000
