10
Lattice="16.290000149 0.0 0.0 0.0 16.290000149 0.0 0.0 0.0 29.1751946751" Properties=species:S:1:pos:R:3:initial_magmoms:R:1 pbc="T T T"
Si      -0.71539165       0.40698936      -2.10230910       0.00000000
Si      -1.91813123      -0.79767244       1.09191959       0.00000000
Si       0.85794544       1.94588939       1.01319324       0.00000000
Si       1.69823252      -1.66570139      -0.16130294       0.00000000
H       -1.21766122      -2.61335585      -0.82388124       0.00000000
Si       2.17168508       0.67280959       2.47761880       0.00000000
Si      -0.66396412      -2.16616277       2.50042797       0.00000000
Si       3.42813279      -0.72931960       1.11077843       0.00000000
Si       0.83139274      -3.39834490       1.21364142       0.00000000
Si      -2.38172834       2.02683440      -2.17390502       0.00000000
