10
Lattice="16.290000149 0.0 0.0 0.0 16.290000149 0.0 0.0 0.0 29.1751946751" Properties=species:S:1:pos:R:3:initial_magmoms:R:1 pbc="T T T"
Si       1.37305153       1.38404728       1.30955779       0.00000000
Si       1.37088496      -1.33995351      -1.36566169       0.00000000
Si      -1.32377428       1.36456444      -1.39261957       0.00000000
Si      -1.36695907      -1.35904865       1.37704001       0.00000000
Si      -2.67366143      -2.67330305      -0.06914521       0.00000000
Si       2.67801086       0.00358380       2.68365111       0.00000000
Si      -2.68436396       2.71617833      -0.03979497       0.00000000
Si       2.70301601      -2.70619256       0.00636019       0.00000000
Si      -2.69066819       0.03534930       2.74176809       0.00000000
Si       0.04939128       2.75504628       2.68315513       0.00000000
