10
Lattice="16.290000149 0.0 0.0 0.0 16.290000149 0.0 0.0 0.0 29.1751946751" Properties=species:S:1:pos:R:3:initial_magmoms:R:1 pbc="T T T"
Si       1.35013150       1.34298019       1.31235861       0.00000000
Si      -1.30996036       1.42741126      -1.29733338       0.00000000
Si       1.43795089      -1.33457455      -1.28111197       0.00000000
Si      -1.37059174      -1.25384131       1.43317309       0.00000000
Si      -2.66111813       0.04122999      -2.62019506       0.00000000
Si       0.07060086      -2.69270444      -2.61015879       0.00000000
Si      -0.01479132      -2.61099380       2.73774192       0.00000000
Si      -2.68187159      -2.68306076       0.10964038       0.00000000
Si      -2.60863175       2.78526423       0.12031850       0.00000000
Si       0.06590934       2.75768526      -2.65281293       0.00000000
