10
Lattice="16.290000149 0.0 0.0 0.0 16.290000149 0.0 0.0 0.0 29.1751946751" Properties=species:S:1:pos:R:3:initial_magmoms:R:1 pbc="T T T"
Si       1.72990028       0.93638179       1.27208138       0.00000000
Si      -0.86683978      -1.73264351       1.37494436       0.00000000
Si       0.72884719      -0.63109090      -2.17898822       0.00000000
Si      -1.69823252       1.66570139       0.16130294       0.00000000
H       -2.91589374      -0.94765447      -0.66257830       0.00000000
Si       0.47345256       2.33851097       2.63892174       0.00000000
Si      -2.36219663      -0.50046138       2.66173091       0.00000000
Si      -0.84808999      -2.31274345      -2.63120373       0.00000000
Si       2.97675318      -1.14137515      -1.90695870       0.00000000
Si      -2.41362416       2.07269075      -1.94100615       0.00000000
