10
Lattice="16.290000149 0.0 0.0 0.0 16.290000149 0.0 0.0 0.0 29.1751946751" Properties=species:S:1:pos:R:3:initial_magmoms:R:1 pbc="T T T"
Si      -1.25198425      -1.28562310       1.51363827       0.00000000
H       -0.95283469       1.54551376       1.49528708       0.00000000
Si       1.51523065       0.73443466       1.64953633       0.00000000
Si       0.58253041      -1.06999237      -2.04407249       0.00000000
Si      -1.51102783       1.89827372      -0.30741903       0.00000000
H        1.80076178      -1.81552703       0.74647653       0.00000000
H        3.06203133       0.34937163      -0.97929458       0.00000000
Si      -1.91915750       1.21852459      -2.54492306       0.00000000
Si       0.14424795       2.52698627       2.28964010       0.00000000
Si       3.12276045       1.42894252       0.08157384       0.00000000
