10
Lattice="16.290000149 0.0 0.0 0.0 16.290000149 0.0 0.0 0.0 29.1751946751" Properties=species:S:1:pos:R:3:initial_magmoms:R:1 pbc="T T T"
H        1.08152569      -1.71435962      -0.78367082       0.00000000
Si      -0.24806412       0.52043292      -2.29719239       0.00000000
Si       1.94277800       0.84879046       1.06495996       0.00000000
Si      -1.74878039       1.54233721       0.44739986       0.00000000
Si      -0.83303803      -1.99967897       1.09270265       0.00000000
Si       0.71063497       2.04946707       2.66083435       0.00000000
Si      -2.16981173      -0.84610261       2.65090020       0.00000000
Si       1.98205319      -2.45596187      -1.76226520       0.00000000
Si      -2.14531157      -0.78452641      -2.92431320       0.00000000
Si      -0.70793083       3.39124571       1.40702161       0.00000000
