10
Lattice="16.290000149 0.0 0.0 0.0 16.290000149 0.0 0.0 0.0 29.1751946751" Properties=species:S:1:pos:R:3:initial_magmoms:R:1 pbc="T T T"
Si       1.35584929      -1.39518801      -1.28960195       0.00000000
Si       1.39194793       1.34307793       1.33009713       0.00000000
Si      -1.32505631      -1.38368076       1.36154799       0.00000000
Si      -1.29388702       1.35312886      -1.43180185       0.00000000
Si      -2.64364434       2.67918374      -0.02374861       0.00000000
Si       2.70221780      -0.06485049      -2.63606928       0.00000000
Si       0.03316644       2.69858513       2.68426379       0.00000000
Si      -2.65498772      -0.04377123      -2.74838211       0.00000000
Si      -2.70466130      -0.03557736       2.70308179       0.00000000
Si      -2.63938092      -2.76768732      -0.00218814       0.00000000
