10
Lattice="16.290000149 0.0 0.0 0.0 16.290000149 0.0 0.0 0.0 29.1751946751" Properties=species:S:1:pos:R:3:initial_magmoms:R:1 pbc="T T T"
Si      -1.41540553      -1.32646213       1.23848701       0.00000000
Si       1.36231642      -1.36954918      -1.26211892       0.00000000
Si       1.23074209       1.13744926       1.62514587       0.00000000
Si      -1.39510819       1.45055935      -1.19352804       0.00000000
Si      -0.37105362       1.06170076       3.41554004       0.00000000
Si       2.70021413       0.07765443      -2.51825693       0.00000000
Si      -2.49829958       0.09312993       2.73689584       0.00000000
Si      -0.05755257      -2.67960728      -2.57599464       0.00000000
Si       2.52797996       2.72749988       0.34878945       0.00000000
Si      -0.12056229      -2.62026281       2.66494981       0.00000000
