10
Lattice="16.290000149 0.0 0.0 0.0 16.290000149 0.0 0.0 0.0 29.1751946751" Properties=species:S:1:pos:R:3:initial_magmoms:R:1 pbc="T T T"
Si       1.35115777       1.38618127       1.32286168       0.00000000
Si      -1.33883439       1.35912358      -1.36318180       0.00000000
Si       1.38862477      -1.35081568      -1.33348145       0.00000000
Si      -1.35029603      -1.36544410       1.36426128       0.00000000
Si       2.66111813      -0.04122999       2.62019506       0.00000000
Si      -2.66642867       2.70811478       0.03232612       0.00000000
Si       0.04077387      -2.71275743      -2.68391368       0.00000000
Si      -2.69081480       0.00643455      -2.72443803       0.00000000
Si      -2.69267186      -2.72619668       0.00980287       0.00000000
Si       0.01975977       2.71096553      -2.72595514       0.00000000
