10
Lattice="16.290000149 0.0 0.0 0.0 16.290000149 0.0 0.0 0.0 29.1751946751" Properties=species:S:1:pos:R:3:initial_magmoms:R:1 pbc="T T T"
Si       0.11906361      -2.30458053      -0.23261383       0.00000000
Si      -1.74579932      -0.32204190       1.49414924       0.00000000
Si      -0.98119558       0.86463248      -1.98408829       0.00000000
Si       1.84008584       1.18017630       0.99767496       0.00000000
H       -0.42169923       2.67163985       1.50471067       0.00000000
Si      -2.50165532       2.18150632      -0.78536707       0.00000000
Si       1.72085933      -2.22883203      -2.02300800       0.00000000
Si      -1.06389991       3.51362108       0.42444073       0.00000000
Si       0.40465989      -3.19214119       2.00772020       0.00000000
Si      -3.66324636       0.74119012       0.71852669       0.00000000
