10
Lattice="10.86 0.0 0.0 0.0 10.86 0.0 0.0 0.0 10.86" Properties=species:S:1:pos:R:3:initial_magmoms:R:1 pbc="T T T"
Si      -1.32693996      -1.33834296      -1.34619474       0.00000000
Si       1.38806004      -1.33834296       1.36880526       0.00000000
Si       1.38806004       1.37665704      -1.34619474       0.00000000
Si      -2.61817224       2.75778840       0.04693692       0.00000000
Si      -2.68443996      -2.69584296       0.01130526       0.00000000
Si      -2.68443996       0.01915704      -2.70369474       0.00000000
Si       0.03056004      -2.69584296      -2.70369474       0.00000000
Si       0.03056004      -2.69584296       2.72630526       0.00000000
Si       0.03056004       2.73415704      -2.70369474       0.00000000
Si       2.74556004      -2.69584296       0.01130526       0.00000000
