10
Lattice="10.86 0.0 0.0 0.0 10.86 0.0 0.0 0.0 10.86" Properties=species:S:1:pos:R:3:initial_magmoms:R:1 pbc="T T T"
Si       1.39027548       1.24314420      -1.31165994       0.00000000
Si      -1.32472452       1.24314420       1.40334006       0.00000000
Si       1.39027548      -1.47185580       1.40334006       0.00000000
Si      -2.61595680      -0.09072444      -2.63352828       0.00000000
Si       0.03277548       2.60064420      -2.66915994       0.00000000
Si      -2.68222452       2.60064420       0.04584006       0.00000000
Si       2.74777548       2.60064420       0.04584006       0.00000000
Si       0.03277548       2.60064420       2.76084006       0.00000000
Si       2.74777548      -0.11435580      -2.66915994       0.00000000
Si      -2.68222452      -0.11435580       2.76084006       0.00000000
