10
Lattice="16.28999089631971 0.0 0.0 0.0 16.28999089631971 0.0 0.0 0.0 34.185847837958455" Properties=species:S:1:pos:R:3:initial_magmoms:R:1 pbc="T T T"
Si      -1.35622179      -1.33255295       1.35706610       0.00000000
Si      -1.43873064       1.20821301      -1.39801052       0.00000000
Si       1.35508486       1.38548079       1.35696355       0.00000000
Si       1.34349452      -1.41457147      -1.36075476       0.00000000
Si       0.26545327       2.19831921      -2.72429707       0.00000000
Si       2.02428620       0.38340144      -2.94951356       0.00000000
Si      -0.00531421      -2.69163354       2.71468944       0.00000000
Si      -2.70459396       2.72000646      -0.01554090       0.00000000
Si       2.71208258       0.02376711       2.71325363       0.00000000
Si      -2.74328271      -2.68254665      -0.02073715       0.00000000
