10
Lattice="16.28999089631971 0.0 0.0 0.0 16.28999089631971 0.0 0.0 0.0 34.185847837958455" Properties=species:S:1:pos:R:3:initial_magmoms:R:1 pbc="T T T"
Si       1.80898495      -0.76709610       1.32046330       0.00000000
Si      -0.45264697       2.27427948      -0.47822609       0.00000000
Si      -2.10111093      -0.88231527       0.69643448       0.00000000
Si       0.60391591      -0.84766644      -2.15596588       0.00000000
Si      -2.13597153       1.59410682      -2.05522013       0.00000000
Si      -0.30739882       0.89888220      -3.45417418       0.00000000
Si      -1.39504269      -3.10922343       1.34883757       0.00000000
Si      -3.52967877      -0.01317861      -1.06523161       0.00000000
Si       2.23159642      -2.99685501       0.55018734       0.00000000
Si       1.12930099      -0.73972890       3.53543399       0.00000000
