10
Lattice="16.28999089631971 0.0 0.0 0.0 16.28999089631971 0.0 0.0 0.0 34.185847837958455" Properties=species:S:1:pos:R:3:initial_magmoms:R:1 pbc="T T T"
Si       1.38210876      -1.24176619       1.48281540       0.00000000
Si      -0.96666489      -1.73649349      -1.32494305       0.00000000
Si       1.80327042       0.86895258      -1.31834518       0.00000000
Si      -1.32449103       1.46306517       1.44068473       0.00000000
Si       2.53886166      -2.67867451       0.07507216       0.00000000
Si       0.63703674      -3.53442079      -1.18073609       0.00000000
Si       3.38118498      -0.95688275      -1.40104079       0.00000000
Si      -2.71974582      -2.65865410       0.08586806       0.00000000
Si       2.68179012       2.73008508       0.11020840       0.00000000
Si       0.04284270      -2.60255134       2.83501343       0.00000000
