10
Lattice="16.28999089631971 0.0 0.0 0.0 16.28999089631971 0.0 0.0 0.0 34.185847837958455" Properties=species:S:1:pos:R:3:initial_magmoms:R:1 pbc="T T T"
Si       1.35677781       1.35664749       1.35731566       0.00000000
Si       1.35780408      -1.35777802      -1.35693962       0.00000000
Si      -1.35767376       1.35845568      -1.35711055       0.00000000
Si      -1.35933534      -1.35797350       1.35748659       0.00000000
Si      -2.71406061       0.00125433       2.71312714       0.00000000
Si       2.71388142      -0.00107514      -2.71425528       0.00000000
Si       2.71472850      -2.71433814      -0.00030767       0.00000000
Si      -0.00081450       2.71524978      -2.71422109       0.00000000
Si      -2.71485882      -2.71479684       0.00027349       0.00000000
Si      -0.00029322      -2.71400264       2.71603294       0.00000000
