10
Lattice="16.28999089631971 0.0 0.0 0.0 16.28999089631971 0.0 0.0 0.0 34.185847837958455" Properties=species:S:1:pos:R:3:initial_magmoms:R:1 pbc="T T T"
Si       1.34100909       1.36439827      -1.37946810       0.00000000
Si      -1.37513664      -1.34812197      -1.37980996       0.00000000
Si      -1.41918480       1.31280784       1.38182693       0.00000000
Si       1.29142233      -1.55112795       1.48845265       0.00000000
Si      -1.94481423      -0.56550572       2.86532262       0.00000000
Si       2.69118945       2.72036158       0.00273487       0.00000000
Si       2.69620677      -2.72847141       0.00085465       0.00000000
Si      -2.73675258       2.69162602      -0.03425424       0.00000000
Si       2.69622306       0.00838120      -2.73917677       0.00000000
Si      -0.01769094      -2.70696861      -2.73839050       0.00000000
