10
Lattice="16.28999089631971 0.0 0.0 0.0 16.28999089631971 0.0 0.0 0.0 34.185847837958455" Properties=species:S:1:pos:R:3:initial_magmoms:R:1 pbc="T T T"
Si       2.13504885       1.05169869       0.02345150       0.00000000
Si      -0.95278581       0.33373323      -2.16417049       0.00000000
Si      -1.45642374       1.62137628       1.04061779       0.00000000
Si       0.33837588      -2.18903880       0.96616097       0.00000000
Si       2.21724819       1.57429818      -2.25103678       0.00000000
Si      -1.31676957       0.90357372       3.30970471       0.00000000
Si       0.04968450       2.45876373      -2.76512385       0.00000000
Si       1.81846899       3.11041260       1.02738786       0.00000000
Si       0.26103096      -1.14537433      -3.56548336       0.00000000
Si      -0.38556801       3.70185363       0.68689662       0.00000000
