10
Lattice="16.28999089631971 0.0 0.0 0.0 16.28999089631971 0.0 0.0 0.0 34.185847837958455" Properties=species:S:1:pos:R:3:initial_magmoms:R:1 pbc="T T T"
Si       1.35685926       1.35679410      -1.35711055       0.00000000
Si      -1.35751086       1.35682668       1.35697380       0.00000000
Si       1.35767376      -1.35845568       1.35711055       0.00000000
Si      -1.35739683      -1.35865116      -1.35840961       0.00000000
Si       0.00327429       2.70804960      -2.71476807       0.00000000
Si      -2.71501357      -0.00133578       2.71302459       0.00000000
Si       2.71445157      -0.00180819       2.71442621       0.00000000
Si      -2.71461447       2.71430496      -0.00010256       0.00000000
Si      -2.71439456       0.00306252      -2.71469969       0.00000000
Si      -0.00058644       2.71505430       2.71459714       0.00000000
