10
Lattice="16.28999089631971 0.0 0.0 0.0 16.28999089631971 0.0 0.0 0.0 34.185847837958455" Properties=species:S:1:pos:R:3:initial_magmoms:R:1 pbc="T T T"
Si      -1.80221157      -0.92245383      -1.15449091       0.00000000
Si       0.96282045       1.83303225      -1.09353751       0.00000000
Si      -1.69593561       0.59769639       1.61859824       0.00000000
Si       1.83808215      -1.65286485       0.22002024       0.00000000
Si      -0.34293708      -2.20004595      -2.41714591       0.00000000
Si       2.39106249       0.55118844      -2.41300942       0.00000000
Si      -0.38366208      -0.42336081       3.41256998       0.00000000
Si       1.56880845      -1.77223797       2.60520236       0.00000000
Si      -2.66274711       2.75823909       0.23260064       0.00000000
Si       0.97463070      -3.57886413      -1.00106474       0.00000000
