10
Lattice="16.28999089631971 0.0 0.0 0.0 16.28999089631971 0.0 0.0 0.0 34.185847837958455" Properties=species:S:1:pos:R:3:initial_magmoms:R:1 pbc="T T T"
Si      -1.99185390      -1.29949891       0.14381994       0.00000000
Si       1.35462427      -1.75989992       1.07446180       0.00000000
Si       1.20076522       0.26226900      -2.17227254       0.00000000
Si       0.15166804       1.52899569       1.97437056       0.00000000
Si      -1.47166533       1.87194906      -0.94359830       0.00000000
Si      -1.35996480      -3.05482202       1.52171550       0.00000000
Si       1.89222685       2.48846040      -1.95108998       0.00000000
Si      -3.48809040       0.07359822       1.24303231       0.00000000
Si       0.46860791      -3.75004664       0.12276145       0.00000000
Si       2.46387553       2.02279446       2.11121658       0.00000000
