10
Lattice="16.28999089631971 0.0 0.0 0.0 16.28999089631971 0.0 0.0 0.0 34.185847837958455" Properties=species:S:1:pos:R:3:initial_magmoms:R:1 pbc="T T T"
Si      -1.34299647      -1.35531171       1.35430730       0.00000000
Si      -1.35604476       1.35513252      -1.35495684       0.00000000
Si       1.35573525      -1.35829278      -1.35495684       0.00000000
Si       1.35762489       1.34201907       1.37601533       0.00000000
Si      -2.71352304       2.71037907       0.00546974       0.00000000
Si      -0.00001629       2.71277370      -2.71203320       0.00000000
Si      -2.71469592      -0.00169416      -2.71152041       0.00000000
Si       2.71471221      -0.00164529      -2.71169134       0.00000000
Si       2.71806795       2.70974376       0.00311091       0.00000000
Si       0.00016290      -2.71669959      -2.71152041       0.00000000
