10
Lattice="16.28999089631971 0.0 0.0 0.0 16.28999089631971 0.0 0.0 0.0 34.185847837958455" Properties=species:S:1:pos:R:3:initial_magmoms:R:1 pbc="T T T"
Si      -0.94674222       1.52915859       1.46643695       0.00000000
Si       2.17673496      -0.48034323       0.68686244       0.00000000
Si       0.47706894       1.38316761      -1.84952377       0.00000000
Si      -1.54592100      -1.79268192       0.19407317       0.00000000
Si       2.01544767      -0.86726331       2.98128108       0.00000000
Si       2.81294091      -2.31352209      -0.66994043       0.00000000
Si      -1.28409183      -2.44685574       2.49334621       0.00000000
Si      -1.86008994       3.25700631       0.14987084       0.00000000
Si      -1.22207580       2.92542336      -2.10960985       0.00000000
Si      -0.85177152      -3.49523127      -1.29988340       0.00000000
