10
Lattice="16.28999089631971 0.0 0.0 0.0 16.28999089631971 0.0 0.0 0.0 34.185847837958455" Properties=species:S:1:pos:R:3:initial_magmoms:R:1 pbc="T T T"
Si      -1.57877793       1.59524712      -0.61978977       0.00000000
Si      -0.18511956      -1.86737157      -1.40845772       0.00000000
Si      -0.07244163      -1.28337507       2.00718899       0.00000000
Si       2.00171520       1.32914997      -0.38462519       0.00000000
Si       2.08445211      -2.27282967       1.31762587       0.00000000
Si       2.01891744      -2.45881260      -1.06796648       0.00000000
Si      -0.16749378       2.80968291      -2.06742449       0.00000000
Si      -1.89680760       2.70081684       1.41132933       0.00000000
Si      -0.08674425       0.41650272       3.66961352       0.00000000
Si       0.81107910       1.04731668      -3.51574293       0.00000000
