10
Lattice="16.28999089631971 0.0 0.0 0.0 16.28999089631971 0.0 0.0 0.0 34.185847837958455" Properties=species:S:1:pos:R:3:initial_magmoms:R:1 pbc="T T T"
Si       1.31722569      -1.12368420       1.56689182       0.00000000
Si       1.21119408       1.99418922      -0.20853379       0.00000000
Si       0.01430262      -1.69987779      -1.66242452       0.00000000
Si      -1.73459178       1.71460395       1.26121919       0.00000000
Si      -0.62190333      -1.78224003       2.69434684       0.00000000
Si       2.14656588       0.77434515       2.67793420       0.00000000
Si      -1.81006335       2.28431412      -2.25828418       0.00000000
Si       0.08674425      -0.41650272      -3.66961352       0.00000000
Si      -2.43859671      -2.63875194       1.21886290       0.00000000
Si       0.27554535       3.27720591      -1.90709277       0.00000000
