10
Lattice="16.28999089631971 0.0 0.0 0.0 16.28999089631971 0.0 0.0 0.0 34.185847837958455" Properties=species:S:1:pos:R:3:initial_magmoms:R:1 pbc="T T T"
Si       1.43971020       0.09392814      -1.77718648       0.00000000
Si       1.51518177      -0.47578203       1.74231689       0.00000000
Si      -1.86678513      -1.45176480      -0.04683464       0.00000000
Si       0.17317899       2.08816623      -1.98254098       0.00000000
Si      -1.71248625       2.61570159      -0.30722839       0.00000000
Si      -0.06949314      -1.33802802       3.20232831       0.00000000
Si      -0.96288561      -2.97333225       1.71965166       0.00000000
Si       3.24977355      -2.19038598       0.48109771       0.00000000
Si      -2.56958786      -1.55251845      -2.56961487       0.00000000
Si       3.52531890       1.08681993      -1.42599507       0.00000000
