10
Lattice="16.28999089631971 0.0 0.0 0.0 16.28999089631971 0.0 0.0 0.0 34.185847837958455" Properties=species:S:1:pos:R:3:initial_magmoms:R:1 pbc="T T T"
Si      -1.35725022      -1.35739683      -1.35748659       0.00000000
Si      -1.35614250       1.35861858       1.35834124       0.00000000
Si       1.35819504       1.35782037      -1.35799938       0.00000000
Si       1.35956340      -1.36024758       1.35919588       0.00000000
Si      -0.00374670      -2.70650205       2.71299040       0.00000000
Si      -2.71611152       2.71252935      -0.00133325       0.00000000
Si       2.71515204       2.71422351      -0.00023930       0.00000000
Si      -2.71468289      -0.00037467      -2.71510992       0.00000000
Si      -2.71168716      -0.00786807       2.71811828       0.00000000
Si       0.00055386       2.71523349      -2.71487062       0.00000000
