10
Lattice="16.28999089631971 0.0 0.0 0.0 16.28999089631971 0.0 0.0 0.0 34.185847837958455" Properties=species:S:1:pos:R:3:initial_magmoms:R:1 pbc="T T T"
Si       1.90430100       0.30802339      -1.35444405       0.00000000
Si       1.20717045      -1.27772244       1.59456558       0.00000000
Si      -0.28346229       2.07382193       1.24228022       0.00000000
Si      -1.78468353      -1.48594122      -0.89601157       0.00000000
Si       0.01669725      -0.67052898      -2.52934392       0.00000000
Si       0.35473104       1.76791202      -3.04746492       0.00000000
Si       2.34901800       2.58366635      -1.07159019       0.00000000
Si       0.07016103      -0.81106281       3.60195968       0.00000000
Si      -2.59693551       2.42210213       1.23947698       0.00000000
Si       0.31035708       1.54328106       3.52039221       0.00000000
