10
Lattice="16.28999089631971 0.0 0.0 0.0 16.28999089631971 0.0 0.0 0.0 34.185847837958455" Properties=species:S:1:pos:R:3:initial_magmoms:R:1 pbc="T T T"
Si      -2.31397821      -0.25099632       0.24213850       0.00000000
Si       0.94379373       1.89068256       1.03251574       0.00000000
Si       0.91334772      -1.72784772       1.31656611       0.00000000
Si       0.63801414      -0.33158295      -2.25948069       0.00000000
Si       2.33715888      -1.87383870      -1.99939461       0.00000000
Si       0.83279367       1.12052394       3.34751428       0.00000000
Si      -3.22529294       1.49555232      -1.05606980       0.00000000
Si       2.30122314      -0.64063683       2.87017702       0.00000000
Si       1.86008994      -3.25700631      -0.14987084       0.00000000
Si      -2.91789412       0.59667012       2.39810438       0.00000000
