10
Lattice="16.28999089631971 0.0 0.0 0.0 16.28999089631971 0.0 0.0 0.0 34.185847837958455" Properties=species:S:1:pos:R:3:initial_magmoms:R:1 pbc="T T T"
Si      -1.35633798      -1.35683869      -1.35697380       0.00000000
Si      -1.35521397       1.35601707       1.35970867       0.00000000
Si       1.35927018       1.35792300      -1.35659776       0.00000000
Si       1.35961227      -1.35357098       1.36083681       0.00000000
Si       2.69610903       0.01402569       2.72604940       0.00000000
Si      -2.71326240      -0.00027856      -2.71360575       0.00000000
Si       0.00099369      -2.71385114      -2.71391342       0.00000000
Si      -2.71428867       2.71414695       0.00064953       0.00000000
Si       2.71598283       2.71321842       0.00082046       0.00000000
Si       0.00171045       2.71525467      -2.71394760       0.00000000
