10
Lattice="16.28999089631971 0.0 0.0 0.0 16.28999089631971 0.0 0.0 0.0 34.185847837958455" Properties=species:S:1:pos:R:3:initial_magmoms:R:1 pbc="T T T"
Si       0.44471700       2.27564295       0.28285386       0.00000000
Si      -1.90430100      -0.30802339       1.35444405       0.00000000
Si       1.53611442      -1.86511933      -0.18419345       0.00000000
Si      -1.88760375      -0.97855237      -1.17489988       0.00000000
Si      -1.54956996       1.45988862      -1.69302087       0.00000000
Si       1.70186517      -0.26850385      -2.34990231       0.00000000
Si      -0.69713055      -1.58574583       2.94900963       0.00000000
Si      -0.04543281       0.83353161      -3.54729648       0.00000000
Si       3.26731788       1.67628498       0.05791086       0.00000000
Si      -2.18776329       1.76579853       2.59672427       0.00000000
