10
Lattice="16.28999089631971 0.0 0.0 0.0 16.28999089631971 0.0 0.0 0.0 34.185847837958455" Properties=species:S:1:pos:R:3:initial_magmoms:R:1 pbc="T T T"
Si      -2.25354231       0.60800796      -0.33878194       0.00000000
Si       0.82344321      -1.80297720       1.29800318       0.00000000
Si      -0.52843131      -1.02576501      -2.08263720       0.00000000
Si       1.53847647       1.81602549       0.35587487       0.00000000
Si      -3.16091160      -1.53560943       0.23123320       0.00000000
Si       2.29416957      -1.62512298      -2.30758020       0.00000000
Si      -0.36981558      -1.66260627       3.26799795       0.00000000
Si      -2.17362357       1.32076062      -2.69100889       0.00000000
Si       3.01496949      -1.15075818       1.88723078       0.00000000
Si       2.35603899       2.38265685      -1.76652049       0.00000000
