10
Lattice="16.28999089631971 0.0 0.0 0.0 16.28999089631971 0.0 0.0 0.0 34.185847837958455" Properties=species:S:1:pos:R:3:initial_magmoms:R:1 pbc="T T T"
Si       1.19325879      -0.14037093      -1.96999477       0.00000000
Si      -2.19727665      -0.40354402      -0.75865276       0.00000000
Si      -0.24105942       2.31612849       0.55579382       0.00000000
Si       0.99994536      -1.79279465       1.38028856       0.00000000
Si      -0.32325876       1.79352900       2.83028211       0.00000000
Si       0.98999217      -2.52068921      -2.25117352       0.00000000
Si      -3.41109342       1.07556354       0.64266011       0.00000000
Si       0.36981558       1.66260627      -3.26799795       0.00000000
Si       3.38478507       0.51184809      -1.38076717       0.00000000
Si      -2.43747270      -2.75788790      -0.67708528       0.00000000
