10
Lattice="16.28999089631971 0.0 0.0 0.0 16.28999089631971 0.0 0.0 0.0 34.185847837958455" Properties=species:S:1:pos:R:3:initial_magmoms:R:1 pbc="T T T"
Si      -0.31657986       2.05871391       1.00393635       0.00000000
Si       0.08219934       0.52259949      -2.27448829       0.00000000
Si      -2.13504885      -1.05169869      -0.02345150       0.00000000
Si       2.06045694      -0.85590918       0.83068238       0.00000000
Si       0.32325876      -1.79352900      -2.83028211       0.00000000
Si       1.21262760       3.37018923      -0.29126359       0.00000000
Si       1.61543043       2.27636460      -2.34590256       0.00000000
Si      -2.52061686       2.65015494       0.66344512       0.00000000
Si      -2.08536435       1.40706504      -2.78857535       0.00000000
Si      -3.59147259       0.56967759       1.01716629       0.00000000
