10
Lattice="16.28999089631971 0.0 0.0 0.0 16.28999089631971 0.0 0.0 0.0 34.185847837958455" Properties=species:S:1:pos:R:3:initial_magmoms:R:1 pbc="T T T"
Si      -1.35852524       1.35143469       1.35793101       0.00000000
Si       1.35699773      -1.36171368       1.35629009       0.00000000
Si       1.35784480       1.34809524      -1.37062764       0.00000000
Si      -1.35508486      -1.38548079      -1.35696355       0.00000000
Si       2.56214821      -0.06061509      -2.84965182       0.00000000
Si       2.71766885       2.70498708      -0.00006837       0.00000000
Si      -0.00021991       2.71124244       2.71459714       0.00000000
Si      -2.71472754       2.71182888      -0.00601671       0.00000000
Si       2.71439456      -0.00306252       2.71469969       0.00000000
Si      -2.71130664      -2.71803374       0.00010256       0.00000000
