10
Lattice="16.28999089631971 0.0 0.0 0.0 16.28999089631971 0.0 0.0 0.0 34.185847837958455" Properties=species:S:1:pos:R:3:initial_magmoms:R:1 pbc="T T T"
Si       1.35557235       1.35840681       1.35656357       0.00000000
Si      -1.35765747       1.35729909      -1.35731566       0.00000000
Si       1.35752715      -1.35783666      -1.35717892       0.00000000
Si      -1.35847197      -1.35894438       1.35741822       0.00000000
Si       2.71316466      -0.00052128      -2.71483644       0.00000000
Si      -0.00016290       2.71669959       2.71152041       0.00000000
Si      -0.00037467       2.71417464      -2.71422109       0.00000000
Si       2.71454931       2.71505430      -0.00017093       0.00000000
Si      -2.71485882       2.71500543       0.00000000       0.00000000
Si      -2.71606428      -0.00034209      -2.71411853       0.00000000
