10
Lattice="16.28999089631971 0.0 0.0 0.0 16.28999089631971 0.0 0.0 0.0 34.185847837958455" Properties=species:S:1:pos:R:3:initial_magmoms:R:1 pbc="T T T"
Si       1.34698752       1.35868374      -1.38333111       0.00000000
Si      -1.37973042       1.28865303       1.42907180       0.00000000
Si      -1.37057544      -1.35630540      -1.37840834       0.00000000
Si       1.38538305      -1.46012157       1.43919081       0.00000000
Si       2.69027721       2.70972747      -0.00427323       0.00000000
Si      -2.51436150      -0.19517049       2.87178375       0.00000000
Si      -2.72811888       2.70386307      -0.01155482       0.00000000
Si       2.69827560      -2.73461859      -0.02420359       0.00000000
Si       2.70063765       0.00125433      -2.74163816       0.00000000
Si      -2.73479778      -2.71596654      -0.00041023       0.00000000
