10
Lattice="16.28999089631971 0.0 0.0 0.0 16.28999089631971 0.0 0.0 0.0 34.185847837958455" Properties=species:S:1:pos:R:3:initial_magmoms:R:1 pbc="T T T"
Si      -1.23917608       1.21733541      -1.54862661       0.00000000
Si      -1.37711980      -1.33537275       1.36779705       0.00000000
Si       1.33786349       1.37850867       1.36926704       0.00000000
Si       1.44489857      -1.33226136      -1.47317156       0.00000000
Si       2.69545254      -2.69910639       0.00318612       0.00000000
Si       2.69504529       0.02107926       2.72986454       0.00000000
Si      -0.02091750      -2.69576694       2.73174477       0.00000000
Si      -2.70216469       2.72684826      -0.00453988       0.00000000
Si       2.68931121       2.74243779      -0.00102558       0.00000000
Si      -2.72207107      -2.71267596       0.00130932       0.00000000
