10
Lattice="16.28999089631971 0.0 0.0 0.0 16.28999089631971 0.0 0.0 0.0 34.185847837958455" Properties=species:S:1:pos:R:3:initial_magmoms:R:1 pbc="T T T"
Si       1.33004592      -1.26993582       1.38654458       0.00000000
Si      -0.82934019      -1.89802935      -1.11104238       0.00000000
Si       1.85684823       0.84621663      -1.24289420       0.00000000
Si      -1.41296202       1.47960441       1.34469766       0.00000000
Si      -0.93537180       1.21984407      -2.88646799       0.00000000
Si      -2.14656588      -0.77434515      -2.67793420       0.00000000
Si      -0.05835078      -2.58838326       2.73025084       0.00000000
Si      -2.76846921      -2.55658518       0.01641263       0.00000000
Si       2.65492791       0.12287547       2.72724249       0.00000000
Si       2.62140309      -2.76104097      -0.11349708       0.00000000
