10
Lattice="16.28999089631971 0.0 0.0 0.0 16.28999089631971 0.0 0.0 0.0 34.185847837958455" Properties=species:S:1:pos:R:3:initial_magmoms:R:1 pbc="T T T"
Si       1.35400851       1.36273995       1.38404901       0.00000000
Si      -1.36432008      -1.35513252       1.38476691       0.00000000
Si      -1.49646456       1.23968529      -1.44191543       0.00000000
Si       1.41296202      -1.47960441      -1.34469766       0.00000000
Si      -2.46819564      -0.53934561      -2.76141267       0.00000000
Si       2.69755884       2.70819621       0.00307673       0.00000000
Si      -2.70946683      -2.70625770       0.04393909       0.00000000
Si      -2.73240315       2.69620677       0.01908255       0.00000000
Si       2.70912474       0.00236205       2.74215095       0.00000000
Si      -0.00519651      -2.71246419       2.74307396       0.00000000
