10
Lattice="16.28999089631971 0.0 0.0 0.0 16.28999089631971 0.0 0.0 0.0 34.185847837958455" Properties=species:S:1:pos:R:3:initial_magmoms:R:1 pbc="T T T"
Si      -0.53776548       0.51650703      -2.18398398       0.00000000
Si      -1.85684823      -0.84621663       1.24289420       0.00000000
Si       0.78379335       1.92016746       1.20469491       0.00000000
Si       1.69344324      -1.75321125      -0.04153617       0.00000000
Si      -2.79222003       0.37362744      -1.64357379       0.00000000
Si      -0.52680231      -2.11615245       2.62943877       0.00000000
Si       1.01729421       2.35287873      -2.28589205       0.00000000
Si       2.18826828       0.62672517       2.59482558       0.00000000
Si      -2.68618842      -2.74424598       0.13185181       0.00000000
Si       0.76455486      -3.60725760       1.12939712       0.00000000
