10
Lattice="16.28999089631971 0.0 0.0 0.0 16.28999089631971 0.0 0.0 0.0 34.185847837958455" Properties=species:S:1:pos:R:3:initial_magmoms:R:1 pbc="T T T"
Si      -0.79335558      -0.49658436      -2.12964277       0.00000000
Si      -1.83899439       0.78542235       1.20194090       0.00000000
Si       1.13269257      -1.75184289       1.15435417       0.00000000
Si       1.36203948       1.86170265      -0.60693588       0.00000000
Si       2.49885342       1.34592867       1.42849064       0.00000000
Si      -1.59601275       1.75172886      -2.49502131       0.00000000
Si       1.28306556      -1.02350070      -3.04155077       0.00000000
Si       1.68089994      -0.41819688       2.99427171       0.00000000
Si      -2.87881767       2.02057902      -0.49166114       0.00000000
Si      -2.63482605      -1.90193895      -1.72190793       0.00000000
