10
Lattice="16.28999089631971 0.0 0.0 0.0 16.28999089631971 0.0 0.0 0.0 34.185847837958455" Properties=species:S:1:pos:R:3:initial_magmoms:R:1 pbc="T T T"
Si       0.39180708      -1.28865303      -1.86900972       0.00000000
Si       0.53776548      -0.51650703       2.18398398       0.00000000
Si      -2.25445455      -0.14287959       0.54041018       0.00000000
Si       1.55505969       1.83637170      -0.10190807       0.00000000
Si      -3.19010328       1.14013710      -1.15814880       0.00000000
Si       3.31193619       0.73184454      -1.22522147       0.00000000
Si       2.16117801      -0.24195537      -2.98982755       0.00000000
Si      -1.37718918      -1.22442156      -3.30529473       0.00000000
Si       0.53520795       3.42181224      -1.53788541       0.00000000
Si       2.23120872      -2.26971828       2.14244781       0.00000000
