10
Lattice="16.28999089631971 0.0 0.0 0.0 16.28999089631971 0.0 0.0 0.0 34.185847837958455" Properties=species:S:1:pos:R:3:initial_magmoms:R:1 pbc="T T T"
Si      -0.64987326      -1.34789976      -1.78392109       0.00000000
Si      -1.89522747       1.20014946       0.74955932       0.00000000
Si       1.15784433      -1.59216831       1.32873628       0.00000000
Si       1.37482713       1.91997198      -0.38742843       0.00000000
Si      -0.94604175       2.43669078       2.53826643       0.00000000
Si       2.00171520      -0.41958153       3.19432741       0.00000000
Si       2.87002107      -2.55151899       0.00840972       0.00000000
Si       0.60422868       3.61686090       1.15408068       0.00000000
Si       0.59427549       2.88896634      -2.47738141       0.00000000
Si       1.18912113      -2.13332211      -2.98586199       0.00000000
