10
Lattice="16.28999089631971 0.0 0.0 0.0 16.28999089631971 0.0 0.0 0.0 34.185847837958455" Properties=species:S:1:pos:R:3:initial_magmoms:R:1 pbc="T T T"
Si       0.84541842       0.73795329       2.09292715       0.00000000
Si       1.98749403      -1.08773217      -0.77150665       0.00000000
Si      -1.72866222      -1.66311126       0.31098883       0.00000000
Si      -0.96026292       1.76854014      -1.42756762       0.00000000
Si       1.14362316      -2.26031895      -2.63709778       0.00000000
Si      -1.90944864       0.53199882      -3.21627473       0.00000000
Si       2.32795503       2.57235390       1.63217003       0.00000000
Si       2.47138848      -2.92581432       0.64098501       0.00000000
Si      -0.85804317       1.92689523       3.28054416       0.00000000
Si      -0.01422117      -0.66815064      -3.96583405       0.00000000
