10
Lattice="16.28999089631971 0.0 0.0 0.0 16.28999089631971 0.0 0.0 0.0 34.185847837958455" Properties=species:S:1:pos:R:3:initial_magmoms:R:1 pbc="T T T"
Si       1.35568638       1.35739588       1.35738403       0.00000000
Si      -1.35770634       1.35748873      -1.35728148       0.00000000
Si       1.35734796      -1.35792299      -1.35724729       0.00000000
Si      -1.35755973      -1.35925877       1.35697380       0.00000000
Si       2.71260497      -0.00102823      -2.71408435       0.00000000
Si      -0.00034209       2.71403034      -2.71367412       0.00000000
Si       0.00084708      -2.71445645       2.71360575       0.00000000
Si       0.00146610       2.71637610       2.71199901       0.00000000
Si      -2.71458189       2.71499145       0.00006837       0.00000000
Si      -2.71505430      -2.71483112      -0.00023930       0.00000000
