10
Lattice="16.28999089631971 0.0 0.0 0.0 16.28999089631971 0.0 0.0 0.0 34.185847837958455" Properties=species:S:1:pos:R:3:initial_magmoms:R:1 pbc="T T T"
Si      -0.07082892       0.14504616       2.37065313       0.00000000
Si      -0.57251205       2.08191087      -1.09651168       0.00000000
Si      -1.63628163      -1.79974268      -0.03716004       0.00000000
Si       1.94268024      -0.74137419      -1.27632934       0.00000000
Si       0.51994422      -1.89345905      -2.76802965       0.00000000
Si      -2.09997648       0.91614960      -2.59805752       0.00000000
Si       2.79476127       1.93389993       0.80569251       0.00000000
Si       1.20583467       2.16611388       2.51300308       0.00000000
Si      -3.38357961      -0.69770722      -1.23455421       0.00000000
Si      -0.61696746      -3.47204150      -1.29666993       0.00000000
