10
Lattice="16.28999089631971 0.0 0.0 0.0 16.28999089631971 0.0 0.0 0.0 34.185847837958455" Properties=species:S:1:pos:R:3:initial_magmoms:R:1 pbc="T T T"
Si       1.58892660      -0.23221395      -1.70731057       0.00000000
Si      -1.21479417       1.98671211       0.39870977       0.00000000
Si       1.46056140       0.25164792       1.86583043       0.00000000
Si      -1.27666359      -2.02106772      -0.14234995       0.00000000
Si      -2.57046426       1.37929059      -1.89393121       0.00000000
Si      -1.20583467      -2.16611388      -2.51300308       0.00000000
Si      -2.03235669       1.42008075       2.52110513       0.00000000
Si       2.87653285      -2.09997648      -1.18419843       0.00000000
Si      -0.03762990       0.78519429       3.68236484       0.00000000
Si       2.88855487       2.09069118       1.31810447       0.00000000
