10
Lattice="16.28999089631971 0.0 0.0 0.0 16.28999089631971 0.0 0.0 0.0 34.185847837958455" Properties=species:S:1:pos:R:3:initial_magmoms:R:1 pbc="T T T"
Si       1.49623650      -1.37309713      -1.09921237       0.00000000
Si       0.37667367       0.23970735       2.27124063       0.00000000
Si      -2.19152628      -0.65221902      -0.58922760       0.00000000
Si       0.51823377       2.33189721      -0.37009620       0.00000000
Si       0.05426199       2.63303415       2.08868810       0.00000000
Si       2.01642507       1.79835084      -2.18663061       0.00000000
Si      -1.47649302       2.96678367      -1.53135591       0.00000000
Si      -3.38478507      -0.51184809       1.38076717       0.00000000
Si       3.48809040      -0.07359822      -1.24303231       0.00000000
Si      -3.01496949       1.15075818      -1.88723078       0.00000000
