10
Lattice="16.28999089631971 0.0 0.0 0.0 16.28999089631971 0.0 0.0 0.0 34.185847837958455" Properties=species:S:1:pos:R:3:initial_magmoms:R:1 pbc="T T T"
Si      -2.03074398      -0.77032152       0.93935925       0.00000000
Si       0.73101375       1.68370182       1.57757520       0.00000000
Si      -0.81000396       0.75323331      -2.16034168       0.00000000
Si       2.34573786      -1.26674298      -0.55791335       0.00000000
Si       2.66352970       0.95154777      -1.39423640       0.00000000
Si       2.48336556       2.54896146       0.26753859       0.00000000
Si      -0.93499713      -1.32476796       3.23893996       0.00000000
Si       1.29235086       1.09972161      -3.33944641       0.00000000
Si       0.90319905      -2.77221754       2.37803728       0.00000000
Si      -2.89546605      -2.26352482      -0.80969226       0.00000000
