10
Lattice="16.28999089631971 0.0 0.0 0.0 16.28999089631971 0.0 0.0 0.0 34.185847837958455" Properties=species:S:1:pos:R:3:initial_magmoms:R:1 pbc="T T T"
Si       1.35933534      -1.35391077       1.35451242       0.00000000
Si      -1.35671265      -1.35529542      -1.35741822       0.00000000
Si       1.35778779       1.35936792      -1.35772589       0.00000000
Si      -1.35679410       1.35842310       1.36309307       0.00000000
Si      -0.01987380      -2.69919273       2.72522894       0.00000000
Si       2.71355562      -2.71289099      -0.00010256       0.00000000
Si       0.00016290      -2.71279814      -2.71476807       0.00000000
Si      -2.71427238       0.00203625      -2.71476807       0.00000000
Si      -2.71598283      -2.71321842      -0.00082046       0.00000000
Si       2.71205694      -0.01989009       2.71729782       0.00000000
