10
Lattice="16.28999089631971 0.0 0.0 0.0 16.28999089631971 0.0 0.0 0.0 34.185847837958455" Properties=species:S:1:pos:R:3:initial_magmoms:R:1 pbc="T T T"
Si      -1.46056140      -0.25164792      -1.86583043       0.00000000
Si       1.42799347       1.83904326      -0.54772596       0.00000000
Si      -1.49819130       0.53354637       1.81653441       0.00000000
Si       1.47166533      -1.87194906       0.94359830       0.00000000
Si       0.51370515       1.74807990       2.78037074       0.00000000
Si       2.67243056      -1.60968006      -1.22867424       0.00000000
Si       1.62333338      -0.34295337       2.91796886       0.00000000
Si      -0.52018857      -3.17144797       1.08741824       0.00000000
Si      -2.01642507      -1.79835084       2.18663061       0.00000000
Si      -2.67535557       1.73506419      -1.46712067       0.00000000
