10
Lattice="16.28999089631971 0.0 0.0 0.0 16.28999089631971 0.0 0.0 0.0 34.185847837958455" Properties=species:S:1:pos:R:3:initial_magmoms:R:1 pbc="T T T"
Si       1.96944471      -0.52536879      -1.11910854       0.00000000
Si      -1.19692404       1.74418659      -1.01272212       0.00000000
Si      -1.33897284      -1.93406283      -0.24603568       0.00000000
Si       0.77991633       0.74971467       2.13186485       0.00000000
Si       2.76437620      -1.83008376       0.67335902       0.00000000
Si      -1.34729703       1.01584440       3.18318281       0.00000000
Si       3.12522414       1.53701037      -0.97928834       0.00000000
Si      -2.15653536      -2.50069419       1.87635968       0.00000000
Si       2.85085330      -0.39524427       2.52069490       0.00000000
Si      -0.18047691       3.86463960      -0.67455553       0.00000000
