10
Lattice="16.28999089631971 0.0 0.0 0.0 16.28999089631971 0.0 0.0 0.0 34.185847837958455" Properties=species:S:1:pos:R:3:initial_magmoms:R:1 pbc="T T T"
Si      -2.14687539       0.92501136      -0.22354138       0.00000000
Si       0.32241168      -2.39332680       0.18255253       0.00000000
Si       0.46397178      -0.30113694      -2.45878429       0.00000000
Si       1.99044252       1.70090406       0.70843372       0.00000000
Si       2.47586823       0.91339659      -1.49494796       0.00000000
Si       1.99404261      -0.11060910       2.35444903       0.00000000
Si       2.52328842      -1.79576073       0.71393765       0.00000000
Si      -0.05426199      -2.63303415      -2.08868810       0.00000000
Si      -0.10831221      -0.45709740       3.53355376       0.00000000
Si      -2.54967822       2.01883599       1.83109759       0.00000000
