10
Lattice="16.28999089631971 0.0 0.0 0.0 16.28999089631971 0.0 0.0 0.0 34.185847837958455" Properties=species:S:1:pos:R:3:initial_magmoms:R:1 pbc="T T T"
Si       0.48542571      -0.78750747      -2.20338168       0.00000000
Si       0.00360009      -1.81151316       1.64601531       0.00000000
Si       2.32469770       0.79987158       0.17800581       0.00000000
Si      -0.72555660       2.31655203       0.43108378       0.00000000
Si      -1.99044252      -1.70090406      -0.70843372       0.00000000
Si      -1.40457267       1.87243776       2.63624313       0.00000000
Si       0.53284590      -3.49666479       0.00550392       0.00000000
Si       1.59505394      -2.87854074      -2.06578357       0.00000000
Si      -2.90377395       0.06172281       2.76539733       0.00000000
Si       1.48619113       0.73829538      -3.68414251       0.00000000
