10
Lattice="16.28999089631971 0.0 0.0 0.0 16.28999089631971 0.0 0.0 0.0 34.185847837958455" Properties=species:S:1:pos:R:3:initial_magmoms:R:1 pbc="T T T"
Si       1.75235181       0.86525964      -1.31003661       0.00000000
Si      -0.73101375      -1.68370182      -1.57757520       0.00000000
Si       1.52457037      -0.60461964       1.91936550       0.00000000
Si      -1.69254729       1.87659171      -0.06604709       0.00000000
Si       0.70729551       2.80779327      -2.11087473       0.00000000
Si       1.93251595      -0.73215405      -2.97181160       0.00000000
Si      -0.17961354      -1.59472584       3.24565206       0.00000000
Si      -2.76175773      -2.45402334      -0.63821595       0.00000000
Si      -1.66601088      -3.00846978       1.66136476       0.00000000
Si       1.61472411      -2.95044480      -2.13548855       0.00000000
