10
Lattice="16.28999089631971 0.0 0.0 0.0 16.28999089631971 0.0 0.0 0.0 34.185847837958455" Properties=species:S:1:pos:R:3:initial_magmoms:R:1 pbc="T T T"
Si      -1.34328969      -1.35104373      -1.37905787       0.00000000
Si       1.37202525       1.36489023      -1.37741695       0.00000000
Si       1.37316065      -1.45389879       1.33642810       0.00000000
Si      -1.39484754       1.32483312       1.44930983       0.00000000
Si       0.30353157       2.42201349       2.78389189       0.00000000
Si      -2.69027721      -2.70972747       0.00427323       0.00000000
Si      -2.68986996       2.71251306      -0.01435806       0.00000000
Si       2.73350340      -2.70529659      -0.05370600       0.00000000
Si      -2.70471015       0.00695583      -2.73780934       0.00000000
Si       2.72919632       2.71487511      -0.01890478       0.00000000
