10
Lattice="16.28999089631971 0.0 0.0 0.0 16.28999089631971 0.0 0.0 0.0 34.185847837958455" Properties=species:S:1:pos:R:3:initial_magmoms:R:1 pbc="T T T"
Si      -1.93328091      -0.83872323       1.10615210       0.00000000
Si      -1.29502242       1.38767994      -1.46366789       0.00000000
Si       1.39484754      -1.32483312      -1.44930983       0.00000000
Si       1.69837911       1.09718037       1.33458206       0.00000000
Si      -2.73543309       2.56186314      -0.04010002       0.00000000
Si       0.48523023       2.48490918       2.81120640       0.00000000
Si       2.68364718       2.66765040      -0.15739173       0.00000000
Si      -2.67516009      -2.74590756      -0.01596480       0.00000000
Si      -2.66310549       0.03702717      -2.82949584       0.00000000
Si       0.05155785      -2.67587685      -2.82836770       0.00000000
