10
Lattice="16.28999089631971 0.0 0.0 0.0 16.28999089631971 0.0 0.0 0.0 34.185847837958455" Properties=species:S:1:pos:R:3:initial_magmoms:R:1 pbc="T T T"
Si       0.87869889       2.19724407       0.16334007       0.00000000
Si      -2.12721336       0.26612973       1.05131797       0.00000000
Si      -0.77991633      -0.74971467      -2.13186485       0.00000000
Si       2.07093697      -1.14495894       0.38883005       0.00000000
Si       1.07017155      -2.67076179       1.86959088       0.00000000
Si       1.98445987      -2.57979843      -1.45850583       0.00000000
Si       1.24928010       2.64383442      -2.11501122       0.00000000
Si      -1.57900599       1.59977574       2.89123551       0.00000000
Si       1.18952838      -1.27508346      -3.25097339       0.00000000
Si      -0.76105251       3.36390129       1.32545443       0.00000000
