10
Lattice="16.28999089631971 0.0 0.0 0.0 16.28999089631971 0.0 0.0 0.0 34.185847837958455" Properties=species:S:1:pos:R:3:initial_magmoms:R:1 pbc="T T T"
Si      -1.34408790      -1.32403491       1.37728704       0.00000000
Si      -1.55427777       1.19143431      -1.32582364       0.00000000
Si       1.36745495       1.39300677       1.36812523       0.00000000
Si       1.25380776      -1.47761703      -1.49351899       0.00000000
Si       0.29314737       2.23243047      -2.54016649       0.00000000
Si       2.19084929       0.45188460      -2.56361081       0.00000000
Si      -2.67108759      -2.69102655      -0.00568169       0.00000000
Si       2.72038832      -2.67543702      -0.00216738       0.00000000
Si       0.00816097      -2.67959097       2.72872274       0.00000000
Si      -2.70431919       0.03086955       2.72872274       0.00000000
