10
Lattice="16.28999089631971 0.0 0.0 0.0 16.28999089631971 0.0 0.0 0.0 34.185847837958455" Properties=species:S:1:pos:R:3:initial_magmoms:R:1 pbc="T T T"
Si      -1.44041067       1.17418320       1.42356787       0.00000000
Si       1.34452773       1.36827855      -1.36675096       0.00000000
Si      -1.36808307      -1.35065277      -1.36582794       0.00000000
Si       1.29502242      -1.38767994       1.46366789       0.00000000
Si      -0.63825849      -2.22640317       2.56981999       0.00000000
Si       0.04857678       2.37842145       2.81076198       0.00000000
Si      -2.44983681      -0.50658642       2.87017702       0.00000000
Si       2.68986996      -2.71251306       0.01435806       0.00000000
Si       2.68477119       2.72981304      -0.00738415       0.00000000
Si       2.69938332       0.00995319      -2.72392988       0.00000000
