10
Lattice="16.28999089631971 0.0 0.0 0.0 16.28999089631971 0.0 0.0 0.0 34.185847837958455" Properties=species:S:1:pos:R:3:initial_magmoms:R:1 pbc="T T T"
Si       0.39398994       0.77936247       2.14680407       0.00000000
Si      -0.76722642       1.97039672      -1.16635341       0.00000000
Si       1.98237150      -0.69199920      -1.21811081       0.00000000
Si      -1.59519825      -2.04146280       0.27741831       0.00000000
Si       0.60321870      -1.85872158      -2.69117982       0.00000000
Si       1.37246086       2.77790831       1.43878058       0.00000000
Si      -2.18996244       0.81831186      -2.65805371       0.00000000
Si      -3.32687412      -0.76027059      -1.18669400       0.00000000
Si      -0.38204937      -3.42919161      -1.19920603       0.00000000
Si       2.74672925      -2.56917735       0.07684983       0.00000000
