10
Lattice="16.28999089631971 0.0 0.0 0.0 16.28999089631971 0.0 0.0 0.0 34.185847837958455" Properties=species:S:1:pos:R:3:initial_magmoms:R:1 pbc="T T T"
Si      -1.93589871       1.22253192       0.45976572       0.00000000
Si      -0.69146163      -2.22619140      -0.22118256       0.00000000
Si       1.48854762      -0.21287772       1.86271952       0.00000000
Si       1.39028634       1.01499732      -1.66782589       0.00000000
Si       1.47854556      -3.09335697      -0.55350337       0.00000000
Si      -3.36389219      -0.61651134       1.00749168       0.00000000
Si       2.18167083       2.90735775      -0.47720052       0.00000000
Si      -1.89222685      -2.48846040       1.95108998       0.00000000
Si       2.80999242       1.80369396       1.68016699       0.00000000
Si      -2.11612313       0.95464287      -2.96203444       0.00000000
