10
Lattice="16.28999089631971 0.0 0.0 0.0 16.28999089631971 0.0 0.0 0.0 34.185847837958455" Properties=species:S:1:pos:R:3:initial_magmoms:R:1 pbc="T T T"
Si      -1.13292063       0.64086489       1.95854250       0.00000000
Si       2.10111093       0.88231527      -0.69643448       0.00000000
Si       0.70606824      -2.22690816       0.65240308       0.00000000
Si      -1.42856784       0.86913666      -1.76166610       0.00000000
Si      -1.46408004      -1.10405475      -2.98073411       0.00000000
Si      -3.15033939      -0.73624284       1.77096465       0.00000000
Si       1.59440397      -1.65749121       2.89913245       0.00000000
Si      -0.03486060       2.47642209      -2.75165462       0.00000000
Si       1.64846396       3.15659475      -1.17466057       0.00000000
Si       0.01713708      -0.18653679       3.91219643       0.00000000
