10
Lattice="16.28999089631971 0.0 0.0 0.0 16.28999089631971 0.0 0.0 0.0 34.185847837958455" Properties=species:S:1:pos:R:3:initial_magmoms:R:1 pbc="T T T"
Si      -0.68170392      -1.33421616      -1.88811962       0.00000000
Si       1.60607997       0.82209114       1.67245606       0.00000000
Si      -0.91520478      -1.76692743       1.60246734       0.00000000
Si       1.18886049       1.53241659      -1.82702947       0.00000000
Si      -1.70155566       0.25122438      -3.32409696       0.00000000
Si      -2.27124954      -0.34551090       2.98844101       0.00000000
Si       0.43067502       2.38754385       2.99325096       0.00000000
Si       3.45350511       1.86308730       0.45811322       0.00000000
Si      -2.99006208       2.66949510       0.13421371       0.00000000
Si       1.07517258      -2.43874332      -3.01143302       0.00000000
