10
Lattice="16.28999089631971 0.0 0.0 0.0 16.28999089631971 0.0 0.0 0.0 34.185847837958455" Properties=species:S:1:pos:R:3:initial_magmoms:R:1 pbc="T T T"
Si       0.79138449       1.89236043       1.19062537       0.00000000
Si      -1.39028634      -1.01499732       1.66782589       0.00000000
Si      -1.31227353       1.02105720      -1.79397174       0.00000000
Si       1.95247053      -1.34887716      -0.80736762       0.00000000
Si       0.38366208       0.42336081      -3.41256998       0.00000000
Si       1.41970608       0.78869664       3.34799288       0.00000000
Si      -3.50640947      -0.06035445      -1.29420855       0.00000000
Si       0.09826128      -1.22787504       3.53054541       0.00000000
Si      -3.32618505       0.20753460       2.12759162       0.00000000
Si       1.86787656       3.49686027      -0.63062669       0.00000000
