10
Lattice="16.28999089631971 0.0 0.0 0.0 16.28999089631971 0.0 0.0 0.0 34.185847837958455" Properties=species:S:1:pos:R:3:initial_magmoms:R:1 pbc="T T T"
Si       1.35644320       1.35593073       1.35635846       0.00000000
Si       1.35721209      -1.35738054      -1.35741822       0.00000000
Si      -1.35718151       1.35782037      -1.35755496       0.00000000
Si      -1.35902228      -1.35843939       1.35714473       0.00000000
Si      -2.71267241      -0.00100998       2.71545178       0.00000000
Si       2.71488585       0.00127062       2.71336645       0.00000000
Si       2.71431570      -2.71485882      -0.00034186       0.00000000
Si       2.71425054       2.71538010       0.00000000       0.00000000
Si      -2.71565348      -2.71505430      -0.00044442       0.00000000
Si      -2.71560461       2.71513575      -0.00041023       0.00000000
