10
Lattice="16.28999089631971 0.0 0.0 0.0 16.28999089631971 0.0 0.0 0.0 34.185847837958455" Properties=species:S:1:pos:R:3:initial_magmoms:R:1 pbc="T T T"
Si       1.06394714       1.79243172       1.19512013       0.00000000
Si      -1.36647918       1.55402269      -1.28732561       0.00000000
Si      -1.84742514      -1.04099616       1.21434284       0.00000000
Si       1.89770192      -1.78054587      -0.02344433       0.00000000
Si       0.83443896       2.05733156      -2.24442732       0.00000000
Si      -0.05732451      -1.51681077      -2.77249641       0.00000000
Si      -2.26464462      -0.33067071      -2.28514269       0.00000000
Si      -0.29314737      -2.23243047       2.54016649       0.00000000
Si       2.11553180      -0.00127062      -2.74080611       0.00000000
Si       2.45980466       0.51538843       2.55877727       0.00000000
