10
Lattice="16.28999089631971 0.0 0.0 0.0 16.28999089631971 0.0 0.0 0.0 34.185847837958455" Properties=species:S:1:pos:R:3:initial_magmoms:R:1 pbc="T T T"
Si       1.35614250      -1.35861858      -1.35834124       0.00000000
Si      -1.35996902       1.35391077      -1.35967449       0.00000000
Si      -1.35554466      -1.36648665       1.35977704       0.00000000
Si       1.35226548       1.35094599       1.38032275       0.00000000
Si      -2.71222703       2.71078904       0.00246138       0.00000000
Si       2.71384884       2.71445157       0.00000000       0.00000000
Si      -2.71271573      -2.71647153       0.00126488       0.00000000
Si      -0.00071676       2.71365737      -2.71575946       0.00000000
Si       2.71433754      -0.00079821      -2.71634062       0.00000000
Si      -2.71564708      -0.00112401      -2.71596457       0.00000000
