10
Lattice="16.28999089631971 0.0 0.0 0.0 16.28999089631971 0.0 0.0 0.0 34.185847837958455" Properties=species:S:1:pos:R:3:initial_magmoms:R:1 pbc="T T T"
Si      -1.37915280      -1.16672238      -1.47306901       0.00000000
Si       0.76435775      -1.87717815       1.29496064       0.00000000
Si      -1.98237150       0.69199920       1.21811081       0.00000000
Si       1.54678274       1.61448561      -1.15548230       0.00000000
Si      -2.36442087      -2.73719241       0.01890478       0.00000000
Si       2.70539270      -2.46765807       0.12467586       0.00000000
Si       0.06124388      -2.44433079      -2.78389189       0.00000000
Si      -2.74959792       2.66239592       0.05175740       0.00000000
Si      -2.67305121       0.28312020      -2.78672932       0.00000000
Si       2.76905402       0.27310185      -2.76334618       0.00000000
