10
Lattice="16.28999089631971 0.0 0.0 0.0 16.28999089631971 0.0 0.0 0.0 34.474598006748145" Properties=species:S:1:pos:R:3:initial_magmoms:R:1 pbc="T T T"
Si       1.33854930       1.35298864       1.38227702       0.00000000
Si      -1.24247251       1.44366693      -1.41483485       0.00000000
Si      -1.37659948      -1.35937685       1.37458918       0.00000000
Si       1.31623200      -1.45811054      -1.49062384       0.00000000
Si      -2.19738905      -0.60567113      -2.69416025       0.00000000
Si      -0.51043086      -2.36033219      -2.86301151       0.00000000
Si       2.68037289       2.70074994       0.02027107       0.00000000
Si       2.68723098      -2.72465804       0.01461379       0.00000000
Si       2.69444745      -0.00028366       2.73626761       0.00000000
Si      -2.73337522       2.70676095       0.00304411       0.00000000
