10
Lattice="16.28999089631971 0.0 0.0 0.0 16.28999089631971 0.0 0.0 0.0 34.474598006748145" Properties=species:S:1:pos:R:3:initial_magmoms:R:1 pbc="T T T"
Si       0.28974534      -1.84145418      -1.43893605       0.00000000
Si      -0.17591245       2.00761218      -1.27014832       0.00000000
Si      -2.38455856      -0.33723558      -0.04119717       0.00000000
Si       1.32113040      -0.77398677       1.86562839       0.00000000
Si      -1.79168401      -2.61236214      -0.44834240       0.00000000
Si      -1.38663316       1.09936323      -3.04717695       0.00000000
Si      -0.05221271      -0.76437567      -3.46463009       0.00000000
Si      -2.88296740       0.82626138       1.93264704       0.00000000
Si       2.14346589       2.48917716      -1.49695683       0.00000000
Si       0.47465313       2.61739575       2.56987587       0.00000000
