10
Lattice="16.28999089631971 0.0 0.0 0.0 16.28999089631971 0.0 0.0 0.0 34.474598006748145" Properties=species:S:1:pos:R:3:initial_magmoms:R:1 pbc="T T T"
Si      -1.24361118       1.46675160      -1.32167064       0.00000000
Si      -1.34182359      -1.34776129       1.36200594       0.00000000
Si       1.17747378      -1.40826235      -1.49092377       0.00000000
Si       1.37300265       1.36870209       1.35538682       0.00000000
Si       2.21327343       0.40889529      -2.77403252       0.00000000
Si       0.46960812       2.36393964      -2.67372307       0.00000000
Si      -2.68037289      -2.70074994      -0.02027107       0.00000000
Si       2.72332962      -2.68272582      -0.02533884       0.00000000
Si      -2.69964396       0.00972513       2.71637576       0.00000000
Si       0.01407456      -2.70103359       2.71599654       0.00000000
