10
Lattice="16.28999089631971 0.0 0.0 0.0 16.28999089631971 0.0 0.0 0.0 34.474598006748145" Properties=species:S:1:pos:R:3:initial_magmoms:R:1 pbc="T T T"
Si       1.36407573       1.34658027      -1.38070842       0.00000000
Si      -1.35721764      -1.36559789      -1.37770913       0.00000000
Si       1.23202899      -1.38413591       1.53942956       0.00000000
Si      -1.29127572       1.55390310       1.35726568       0.00000000
Si       2.70972747       2.69472438       0.00413695       0.00000000
Si      -2.71673217      -2.71377458      -0.00637780       0.00000000
Si       2.72139111      -2.71230848       0.00506777       0.00000000
Si       0.00301365       2.70542691      -2.73852570       0.00000000
Si      -2.71246419      -0.00884710      -2.73966336       0.00000000
Si      -2.73619872       2.71956663      -0.02757969       0.00000000
