10
Lattice="16.28999089631971 0.0 0.0 0.0 16.28999089631971 0.0 0.0 0.0 34.474598006748145" Properties=species:S:1:pos:R:3:initial_magmoms:R:1 pbc="T T T"
Si      -1.50568470      -0.15785010       1.78126900       0.00000000
Si      -1.36190916       1.94606856      -0.58665456       0.00000000
Si       0.40140189      -1.27777131      -2.11598306       0.00000000
Si       2.00127537       0.79521264       1.31089732       0.00000000
Si       0.91347804       3.01299840      -0.85200569       0.00000000
Si       1.88959113      -1.28161575       2.47534647       0.00000000
Si      -0.33000282      -1.48639734       3.22575546       0.00000000
Si      -3.35477889      -1.23287607       0.88075752       0.00000000
Si       1.45046160       0.43020261      -3.35751745       0.00000000
Si       2.74696641       1.79929566      -1.93154386       0.00000000
