10
Lattice="16.28999089631971 0.0 0.0 0.0 16.28999089631971 0.0 0.0 0.0 34.474598006748145" Properties=species:S:1:pos:R:3:initial_magmoms:R:1 pbc="T T T"
Si      -1.78189794       0.28585692       1.50816108       0.00000000
Si      -1.03620690       1.28993994      -1.73428010       0.00000000
Si       1.70994501       0.47096019       1.64243972       0.00000000
Si       0.79346961      -2.32577217       0.10804345       0.00000000
Si       2.08642320      -1.86841413      -1.91644397       0.00000000
Si      -1.25535627      -3.41384643       0.79550179       0.00000000
Si      -1.89358218      -1.79097147       2.67261023       0.00000000
Si      -3.78317331      -0.50935572       0.19726376       0.00000000
Si       1.32958980       2.72531700       2.33079440       0.00000000
Si      -2.86969527       2.50364268      -0.65474193       0.00000000
