10
Lattice="16.28999089631971 0.0 0.0 0.0 16.28999089631971 0.0 0.0 0.0 34.474598006748145" Properties=species:S:1:pos:R:3:initial_magmoms:R:1 pbc="T T T"
Si      -1.35648459      -1.35778779      -1.35740358       0.00000000
Si       1.35746199      -1.35767376       1.35747253       0.00000000
Si      -1.35796698       1.35801466       1.35750700       0.00000000
Si       1.35723393       1.36034752      -1.35774833       0.00000000
Si       0.00133578       2.71361982      -2.71173892       0.00000000
Si      -0.00001629      -2.71225242       2.71366950       0.00000000
Si      -0.00032580       2.71492954       2.71377292       0.00000000
Si      -2.71433265      -0.00140094       2.71463479       0.00000000
Si       2.71477737      -2.71494027      -0.00024132       0.00000000
Si       2.71484253       2.71517877      -0.00027580       0.00000000
