10
Lattice="16.28999089631971 0.0 0.0 0.0 16.28999089631971 0.0 0.0 0.0 34.474598006748145" Properties=species:S:1:pos:R:3:initial_magmoms:R:1 pbc="T T T"
Si      -1.11935336       1.88706618       0.86300309       0.00000000
Si      -0.09679192       0.60743781      -2.29269995       0.00000000
Si      -1.22243648      -1.94941795       0.64191737       0.00000000
Si       2.06360580      -0.18461457       1.20199201       0.00000000
Si       1.30947654       0.74684763       3.22123929       0.00000000
Si       0.29877163      -3.56992811      -0.27252185       0.00000000
Si      -1.24766969       2.67346593      -2.24805532       0.00000000
Si      -3.01937009       2.10360915      -0.57751879       0.00000000
Si       2.06297049       1.35404109      -2.79799441       0.00000000
Si      -0.90631274       1.65133359       3.22272170       0.00000000
