10
Lattice="16.28999089631971 0.0 0.0 0.0 16.28999089631971 0.0 0.0 0.0 34.474598006748145" Properties=species:S:1:pos:R:3:initial_magmoms:R:1 pbc="T T T"
Si      -0.40725000       1.75957901      -1.51764160       0.00000000
Si      -1.01766888       0.23083419       2.12329168       0.00000000
Si       2.30210280      -0.25219852       0.56345314       0.00000000
Si      -0.76738932      -1.94741316      -1.17137855       0.00000000
Si       0.84538584       1.77109604       2.59238780       0.00000000
Si       0.76838301      -1.46118924      -2.99229336       0.00000000
Si       0.34687926       0.82811681      -3.53688888       0.00000000
Si      -3.05060291      -1.59947505      -1.79430041       0.00000000
Si       2.55907755      -2.23991640       1.97960147       0.00000000
Si      -3.44486978      -0.48939232       1.99211576       0.00000000
