10
Lattice="16.28999089631971 0.0 0.0 0.0 16.28999089631971 0.0 0.0 0.0 34.474598006748145" Properties=species:S:1:pos:R:3:initial_magmoms:R:1 pbc="T T T"
Si      -0.25697475       1.98771787      -1.41614833       0.00000000
Si       2.08036332      -1.03410549      -1.03172187       0.00000000
Si      -2.00137311      -1.62329850       0.23235892       0.00000000
Si       0.60041682       0.62299476       2.44235426       0.00000000
Si       1.26405513       1.57245156      -3.11726384       0.00000000
Si       0.69237387       3.74222744      -0.10259646       0.00000000
Si       3.05846379      -2.25147348       0.80267251       0.00000000
Si       2.60361441      -1.01172303       2.75634907       0.00000000
Si       1.27643553      -2.85000066      -2.39188342       0.00000000
Si      -2.55907755       2.23991640      -1.97960147       0.00000000
