10
Lattice="16.28999089631971 0.0 0.0 0.0 16.28999089631971 0.0 0.0 0.0 34.474598006748145" Properties=species:S:1:pos:R:3:initial_magmoms:R:1 pbc="T T T"
Si      -0.18955044       2.02489587       1.17255068       0.00000000
Si       2.14115760      -0.26290431      -0.95329212       0.00000000
Si      -0.39320802      -2.11016913       1.13390464       0.00000000
Si      -2.30171184       0.36849609      -0.94067441       0.00000000
Si      -0.63607563       0.47475576      -2.52236985       0.00000000
Si      -2.44903860       2.21682465       0.49167699       0.00000000
Si       1.65876183      -2.21041453      -2.17279723       0.00000000
Si       0.11010411       1.36995642       3.36699797       0.00000000
Si       1.09990080      -3.48741926      -0.20512397       0.00000000
Si       3.75492645      -0.63278505       0.79315752       0.00000000
