10
Lattice="16.28999089631971 0.0 0.0 0.0 16.28999089631971 0.0 0.0 0.0 34.474598006748145" Properties=species:S:1:pos:R:3:initial_magmoms:R:1 pbc="T T T"
Si       0.39320802       2.11016913      -1.13390464       0.00000000
Si       0.49730112      -0.10165286       2.37578377       0.00000000
Si       1.49310882      -1.37725012      -1.33902861       0.00000000
Si      -2.32077114      -0.73267111       0.24356317       0.00000000
Si       2.94335865      -2.21773267       0.38180639       0.00000000
Si      -1.90850382       2.47866522      -2.07457904       0.00000000
Si      -2.26211085      -2.07410374       2.18158826       0.00000000
Si       2.53436562       1.84726482      -2.08719675       0.00000000
Si      -0.55798137       1.75221267       3.37616822       0.00000000
Si       0.27051174      -2.99797480      -2.44411247       0.00000000
