10
Lattice="16.28999089631971 0.0 0.0 0.0 16.28999089631971 0.0 0.0 0.0 34.474598006748145" Properties=species:S:1:pos:R:3:initial_magmoms:R:1 pbc="T T T"
Si       0.75917916      -0.28567773      -2.15980030       0.00000000
Si       1.49055129       1.12563900       1.40533851       0.00000000
Si      -1.18868293      -1.59819561       1.29190323       0.00000000
Si      -2.07854861       1.59721821      -1.75655070       0.00000000
Si       0.16011441       2.00327904      -2.71680669       0.00000000
Si      -1.10387556      -1.82593958      -2.62889641       0.00000000
Si       0.02568933       2.40653799       2.70804121       0.00000000
Si       3.20377059       2.02282704       0.05328608       0.00000000
Si      -2.67958564      -0.33510159       2.70978218       0.00000000
Si      -3.45927014      -0.50352390      -1.55814928       0.00000000
