10
Lattice="16.28999089631971 0.0 0.0 0.0 16.28999089631971 0.0 0.0 0.0 34.474598006748145" Properties=species:S:1:pos:R:3:initial_magmoms:R:1 pbc="T T T"
Si      -1.05528249       1.85386553       1.00038444       0.00000000
Si       2.20341798       0.66505717       0.55224889       0.00000000
Si      -0.93823884      -1.77555366       1.31872306       0.00000000
Si      -0.49730112       0.10165286      -2.37578377       0.00000000
Si      -2.75941197      -1.97245089      -0.19419552       0.00000000
Si       0.00601101       3.58177841      -0.14269044       0.00000000
Si      -2.81807226      -0.63101826      -2.13222060       0.00000000
Si       2.28227787      -0.36897290       2.74928178       0.00000000
Si       0.76532049      -3.50475345      -0.93808881       0.00000000
Si       3.60963594      -0.20298155      -1.10480806       0.00000000
