10
Lattice="16.28999089631971 0.0 0.0 0.0 16.28999089631971 0.0 0.0 0.0 34.474598006748145" Properties=species:S:1:pos:R:3:initial_magmoms:R:1 pbc="T T T"
Si       1.34359920       1.37259540       1.35433534       0.00000000
Si       1.35496962      -1.35951453      -1.35785175       0.00000000
Si      -1.35881406       1.35602847      -1.35943758       0.00000000
Si      -1.36660068      -1.36976094       1.38470748       0.00000000
Si       2.54668086       0.04131144       2.82747021       0.00000000
Si      -2.68030773       0.09904320       2.74104234       0.00000000
Si       2.71376739       2.71422351      -0.00251665       0.00000000
Si       2.71388142      -0.00037467      -2.71477269       0.00000000
Si      -0.00125433       2.71401174      -2.71546218       0.00000000
Si       2.71601541      -2.71350675       0.00517119       0.00000000
