10
Lattice="16.28999089631971 0.0 0.0 0.0 16.28999089631971 0.0 0.0 0.0 34.474598006748145" Properties=species:S:1:pos:R:3:initial_magmoms:R:1 pbc="T T T"
Si      -1.39430997       1.28837610      -1.37467536       0.00000000
Si       1.31370705      -1.46880414      -1.35633487       0.00000000
Si      -1.85189607      -0.70757244       1.42669756       0.00000000
Si       1.80488313       0.95705379       1.37612330       0.00000000
Si       0.51192954       0.49969575       3.40061072       0.00000000
Si       2.47241475      -2.73481407       0.40352540       0.00000000
Si      -2.68729614      -2.60962542      -0.00320614       0.00000000
Si      -0.03893310       2.61402372      -2.74059417       0.00000000
Si      -2.61425178       2.74631481       0.13231358       0.00000000
Si       2.68030773      -0.09904320      -2.74104234       0.00000000
