10
Lattice="16.28999089631971 0.0 0.0 0.0 16.28999089631971 0.0 0.0 0.0 34.474598006748145" Properties=species:S:1:pos:R:3:initial_magmoms:R:1 pbc="T T T"
Si       1.35661491       1.35654975      -1.35747253       0.00000000
Si      -1.35710361       1.35711990       1.35812755       0.00000000
Si       1.35785295      -1.35809730       1.35733463       0.00000000
Si      -1.35716877      -1.35855342      -1.35757595       0.00000000
Si      -2.71345788      -0.00027693       2.71422109       0.00000000
Si      -2.71458189       2.71467963      -0.00031027       0.00000000
Si       0.00029322      -2.71608057       2.71335923       0.00000000
Si      -2.71427238      -2.71554300       0.00010342       0.00000000
Si       2.71559187       2.71477737      -0.00017237       0.00000000
Si       0.00171045       2.71643895       2.71435899       0.00000000
