10
Lattice="16.28999089631971 0.0 0.0 0.0 16.28999089631971 0.0 0.0 0.0 34.474598006748145" Properties=species:S:1:pos:R:3:initial_magmoms:R:1 pbc="T T T"
Si      -1.35661491      -1.35654975       1.35747253       0.00000000
Si       1.35897696       1.35822762       1.35730016       0.00000000
Si       1.35848826      -1.35545832      -1.36102342       0.00000000
Si      -1.35837423       1.36132272      -1.35957548       0.00000000
Si      -2.71389771       2.71467963       0.00058607       0.00000000
Si      -2.71378368      -2.71510317      -0.00010342       0.00000000
Si      -2.71371852       0.00057015       2.71560008       0.00000000
Si       0.00123804      -2.71464705       2.71480716       0.00000000
Si       2.71738377      -2.71283886      -0.00041370       0.00000000
Si       0.00120546       2.71586880       2.71466926       0.00000000
