10
Lattice="16.28999089631971 0.0 0.0 0.0 16.28999089631971 0.0 0.0 0.0 34.474598006748145" Properties=species:S:1:pos:R:3:initial_magmoms:R:1 pbc="T T T"
Si       1.46486196      -1.28089899      -1.30270271       0.00000000
Si       1.36265850       1.33604064       1.37580268       0.00000000
Si      -1.35139885      -1.37839464       1.37276892       0.00000000
Si      -1.25461345       1.45349154      -1.54058101       0.00000000
Si      -0.02568933      -2.40653799      -2.70804121       0.00000000
Si      -2.69416142       2.69482212      -0.00027580       0.00000000
Si       2.72122821       2.69490357       0.01003211       0.00000000
Si       0.00781920       2.69441487       2.73527474       0.00000000
Si      -2.70768164      -0.02181231       2.73555054       0.00000000
Si      -2.70527497      -2.74163958       0.00174097       0.00000000
