10
Lattice="16.28999089631971 0.0 0.0 0.0 16.28999089631971 0.0 0.0 0.0 34.474598006748145" Properties=species:S:1:pos:R:3:initial_magmoms:R:1 pbc="T T T"
Si       1.42433244      -1.26175824       1.37639909       0.00000000
Si       1.36440153       1.33222878      -1.37629567       0.00000000
Si      -1.34892603      -1.38331422      -1.38126002       0.00000000
Si      -1.28725209       1.59811416       1.64661114       0.00000000
Si      -2.68366347       2.67506235      -0.01378985       0.00000000
Si      -2.70430290      -2.70896184      -0.01534120       0.00000000
Si       0.01291797       2.69216685      -2.74014600       0.00000000
Si       2.71391400      -2.72378574      -0.02737285       0.00000000
Si      -2.70225036      -0.02454903      -2.74028390       0.00000000
Si       2.74069476       2.70396081      -0.00458512       0.00000000
