10
Lattice="16.28999089631971 0.0 0.0 0.0 16.28999089631971 0.0 0.0 0.0 34.474598006748145" Properties=species:S:1:pos:R:3:initial_magmoms:R:1 pbc="T T T"
Si      -1.36440153      -1.33222878       1.37629567       0.00000000
Si      -1.35148356       1.35993807      -1.36385033       0.00000000
Si       1.36492281      -1.35690813      -1.36316084       0.00000000
Si       1.37629323       1.37173203       1.37171055       0.00000000
Si       0.05993091      -2.59398702       2.75269477       0.00000000
Si      -2.70803331       2.71099809      -0.00341299       0.00000000
Si      -2.71332756      -2.71554300      -0.00496434       0.00000000
Si      -2.71029762       0.00061902      -2.72008178       0.00000000
Si       2.71968066      -2.71438641      -0.00792916       0.00000000
Si       2.72530071       2.70998811      -0.00999764       0.00000000
