10
Lattice="16.28999089631971 0.0 0.0 0.0 16.28999089631971 0.0 0.0 0.0 34.474598006748145" Properties=species:S:1:pos:R:3:initial_magmoms:R:1 pbc="T T T"
Si       0.99030168       1.80413379      -1.09043214       0.00000000
Si       0.57397815      -0.07439643       2.30607610       0.00000000
Si       1.43563770      -1.73688867      -0.85317783       0.00000000
Si      -2.44025829       0.07604172       0.47102670       0.00000000
Si       3.18792042      -0.73590075       0.31354664       0.00000000
Si       0.58127607       0.65630781      -3.18562701       0.00000000
Si       3.21520617       1.61350821      -0.21529398       0.00000000
Si       0.88417233       2.21047155       2.83064188       0.00000000
Si      -2.56640805      -1.67593149       2.15138849       0.00000000
Si       2.57258196      -1.27661472       2.52647233       0.00000000
