10
Lattice="16.28999089631971 0.0 0.0 0.0 16.28999089631971 0.0 0.0 0.0 34.474598006748145" Properties=species:S:1:pos:R:3:initial_magmoms:R:1 pbc="T T T"
Si       0.44072595      -2.28957579      -0.18526659       0.00000000
Si       0.83305431       0.05251896       2.19186169       0.00000000
Si      -2.25158751       0.44821935      -0.59492847       0.00000000
Si       0.77432886       2.63122596      -1.02737807       0.00000000
Si      -1.54308654       2.63210562      -1.15889873       0.00000000
Si       3.10627494      -0.65624265       1.24722270       0.00000000
Si      -0.26725374      -2.49890229      -2.38585036       0.00000000
Si       1.49949450       1.28508552      -2.86604731       0.00000000
Si       2.18075859       2.77905771       0.91064702       0.00000000
Si       2.80280853      -2.38257540      -0.34705597       0.00000000
