10
Lattice="16.28999089631971 0.0 0.0 0.0 16.28999089631971 0.0 0.0 0.0 34.474598006748145" Properties=species:S:1:pos:R:3:initial_magmoms:R:1 pbc="T T T"
Si       1.35552348      -1.35335691      -1.36016155       0.00000000
Si      -1.35729909      -1.35654975       1.35657619       0.00000000
Si       1.35751086       1.35860229       1.35671409       0.00000000
Si      -1.35765747       1.35777150      -1.36378138       0.00000000
Si       2.71389771      -2.71467963      -0.00058607       0.00000000
Si      -2.71485882      -2.71381626      -0.00031027       0.00000000
Si      -2.71461447       0.00071676       2.71429004       0.00000000
Si       0.00017919      -2.71410948       2.71501401       0.00000000
Si       2.71510317       0.00118917       2.71408319       0.00000000
Si       0.00086337       2.71664435       2.71373845       0.00000000
