10
Lattice="16.28999089631971 0.0 0.0 0.0 16.28999089631971 0.0 0.0 0.0 34.474598006748145" Properties=species:S:1:pos:R:3:initial_magmoms:R:1 pbc="T T T"
Si       1.35654975      -1.35106002      -1.36043735       0.00000000
Si      -1.34003169      -1.36816452       1.36591881       0.00000000
Si      -1.35904212       1.36412460      -1.35898941       0.00000000
Si       1.35900954       1.37358909       1.38363876       0.00000000
Si      -2.67551847       0.00032580       2.66061306       0.00000000
Si       2.70803331      -2.71099809       0.00341299       0.00000000
Si      -0.00226431      -2.71037907      -2.71666879       0.00000000
Si      -2.71580364      -2.71223613      -0.00124109       0.00000000
Si       2.71265967       0.00491958      -2.71759961       0.00000000
Si       2.70456354       2.72714148      -0.00296482       0.00000000
