10
Lattice="16.28999089631971 0.0 0.0 0.0 16.28999089631971 0.0 0.0 0.0 34.474598006748145" Properties=species:S:1:pos:R:3:initial_magmoms:R:1 pbc="T T T"
Si       1.22259708       1.62072468       1.10508386       0.00000000
Si      -1.72463859      -1.03537611       1.23974171       0.00000000
Si       1.36236528      -1.55488050      -1.16810346       0.00000000
Si      -1.24248717       1.15492842      -1.67363924       0.00000000
Si      -0.61636473      -2.70164763      -1.76496251       0.00000000
Si       1.78145811       2.89772940      -0.86258940       0.00000000
Si      -1.65700251      -0.94688883      -3.04224708       0.00000000
Si       0.35031645      -3.44846268       1.06974737       0.00000000
Si      -3.38706567       0.57547683       1.29700405       0.00000000
Si      -2.10385350      -3.06792828       0.12793530       0.00000000
