10
Lattice="16.28999089631971 0.0 0.0 0.0 16.28999089631971 0.0 0.0 0.0 34.474598006748145" Properties=species:S:1:pos:R:3:initial_magmoms:R:1 pbc="T T T"
Si      -1.22259708      -1.62072468      -1.10508386       0.00000000
Si       1.45024983      -0.84048255       1.72083500       0.00000000
Si       0.55886103       1.27700472      -1.96767326       0.00000000
Si      -1.49310882       1.37725012       1.33902861       0.00000000
Si       1.04125680       3.22451495      -0.74816814       0.00000000
Si      -0.23048721      -2.22915618       2.77672357       0.00000000
Si      -1.09990080       3.48741926       0.20512397       0.00000000
Si      -2.46508425      -0.46579626      -2.77872310       0.00000000
Si       2.61382824       1.07261572       2.61000432       0.00000000
Si       0.13976820      -3.17560518      -2.27318731       0.00000000
