10
Lattice="16.28999089631971 0.0 0.0 0.0 16.28999089631971 0.0 0.0 0.0 34.474598006748145" Properties=species:S:1:pos:R:3:initial_magmoms:R:1 pbc="T T T"
Si      -1.35704758       1.35726651       1.35805860       0.00000000
Si      -1.35745567      -1.35812988      -1.35685199       0.00000000
Si       1.35804517       1.35809730      -1.35712778       0.00000000
Si       1.35802888      -1.35782037       1.35781728       0.00000000
Si      -2.71436427       2.71489140       0.00044817       0.00000000
Si      -2.71457604      -2.71484253       0.00037922       0.00000000
Si       2.71288447      -0.00027693      -2.71659984       0.00000000
Si      -2.71529280       0.00144981       2.71453136       0.00000000
Si       2.71511620       2.71515204       0.00020685       0.00000000
Si       0.00106537      -2.71518462       2.71511743       0.00000000
