10
Lattice="16.28999089631971 0.0 0.0 0.0 16.28999089631971 0.0 0.0 0.0 34.474598006748145" Properties=species:S:1:pos:R:3:initial_magmoms:R:1 pbc="T T T"
Si      -1.35630540       1.35241993      -1.36023050       0.00000000
Si       1.36030852      -1.36354077      -1.36040287       0.00000000
Si       1.36104483       1.36040203       1.36936627       0.00000000
Si      -1.36187658      -1.36930743       1.37626120       0.00000000
Si       0.15181565      -2.62088442       2.75562511       0.00000000
Si      -2.71086777       2.71261538       0.00299929       0.00000000
Si       2.71429586       2.71258280      -0.00386116       0.00000000
Si       0.00198220       2.71031849      -2.71728933       0.00000000
Si      -2.71270854      -0.00450684      -2.71759961       0.00000000
Si      -2.70749574      -2.72527074      -0.00675702       0.00000000
