10
Lattice="16.28999089631971 0.0 0.0 0.0 16.28999089631971 0.0 0.0 0.0 34.474598006748145" Properties=species:S:1:pos:R:3:initial_magmoms:R:1 pbc="T T T"
Si      -2.26414710      -0.95788525       0.30130815       0.00000000
Si       1.59148154      -1.83156682      -0.56414264       0.00000000
Si       0.35095176       1.73151949      -1.82763736       0.00000000
Si       0.62018866       1.48342279       2.05878967       0.00000000
Si      -2.74105314      -1.22522044      -2.04468955       0.00000000
Si       3.15599921      -0.70684151      -1.92168412       0.00000000
Si       1.76632374       0.53111264      -3.37799537       0.00000000
Si       2.49659630       0.36288418       2.97050540       0.00000000
Si       2.88299510       2.50891087       0.79715658       0.00000000
Si      -2.59141320      -0.71404413       2.85960055       0.00000000
