10
Lattice="16.28999089631971 0.0 0.0 0.0 16.28999089631971 0.0 0.0 0.0 34.474598006748145" Properties=species:S:1:pos:R:3:initial_magmoms:R:1 pbc="T T T"
Si       1.34653140       1.29222054       1.39991565       0.00000000
Si      -1.26416916      -1.46313033       1.34456665       0.00000000
Si      -1.65209922       0.68362614      -1.68573984       0.00000000
Si       1.97594442      -0.25588332      -1.54332519       0.00000000
Si       0.45696708       0.91805553      -2.97567659       0.00000000
Si      -2.26069362      -3.01355945      -0.17485526       0.00000000
Si       0.01272249       2.63941983       2.73469009       0.00000000
Si      -2.67674022      -0.08739585       2.72249297       0.00000000
Si      -2.73986397      -1.53749581      -2.19275803       0.00000000
Si       2.46953142       2.94555780       0.14573493       0.00000000
