10
Lattice="16.28999089631971 0.0 0.0 0.0 16.28999089631971 0.0 0.0 0.0 34.474598006748145" Properties=species:S:1:pos:R:3:initial_magmoms:R:1 pbc="T T T"
Si      -0.37253601      -1.95817270       1.19096013       0.00000000
Si       0.07180632       2.04264220       1.20192306       0.00000000
Si      -0.99608463       0.01558301      -2.16355803       0.00000000
Si       2.42720090       0.72022651       0.13117592       0.00000000
Si       1.38747699      -1.10136757       2.77265016       0.00000000
Si      -1.05233400       2.32515967      -2.32224469       0.00000000
Si      -1.44717102       3.21658105      -0.23042834       0.00000000
Si      -0.92072709      -3.82443655      -0.11438678       0.00000000
Si       0.39426687      -1.11008272      -3.78641616       0.00000000
Si       3.44486978       0.48939232      -1.99211576       0.00000000
