10
Lattice="16.28999089631971 0.0 0.0 0.0 16.28999089631971 0.0 0.0 0.0 34.474598006748145" Properties=species:S:1:pos:R:3:initial_magmoms:R:1 pbc="T T T"
Si      -1.35571896      -1.35539316       1.38500741       0.00000000
Si       1.36215351       1.35646830       1.38721378       0.00000000
Si      -1.27782018       1.49978772      -1.45008169       0.00000000
Si       1.23299010      -1.56719574      -1.42577019       0.00000000
Si       2.56262877      -0.15723108      -2.73596565       0.00000000
Si       2.71860552       2.69016318       0.02871046       0.00000000
Si      -2.70039330      -2.72354139      -0.00571244       0.00000000
Si       2.73033432      -2.71300176       0.01044581       0.00000000
Si      -2.72127708       2.72303640       0.00394734       0.00000000
Si       0.00317655      -2.71277370       2.74561713       0.00000000
