10
Lattice="16.28999089631971 0.0 0.0 0.0 16.28999089631971 0.0 0.0 0.0 34.474598006748145" Properties=species:S:1:pos:R:3:initial_magmoms:R:1 pbc="T T T"
Si       1.35475785      -1.35747828       1.35523168       0.00000000
Si       1.35601218       1.35760860      -1.35843782       0.00000000
Si      -1.36026387      -1.35769005      -1.35771385       0.00000000
Si      -1.36492281       1.35690813       1.36316084       0.00000000
Si      -0.01541034      -2.69910639       2.71208367       0.00000000
Si       2.70772380       0.00961110       2.71322133       0.00000000
Si       2.71168227      -2.71316466      -0.00089634       0.00000000
Si       2.71171485       2.71554300      -0.00203400       0.00000000
Si       2.71261080       0.00027693      -2.71497953       0.00000000
Si      -0.00252495       2.71518462      -2.71522086       0.00000000
