10
Lattice="16.28999089631971 0.0 0.0 0.0 16.28999089631971 0.0 0.0 0.0 34.474598006748145" Properties=species:S:1:pos:R:3:initial_magmoms:R:1 pbc="T T T"
Si       1.36034234       1.34819298      -1.35588670       0.00000000
Si       1.25985231      -1.37274201       1.43083452       0.00000000
Si      -1.35296595      -1.36708938      -1.35798965       0.00000000
Si      -1.18263771       1.48107051       1.41411433       0.00000000
Si       2.36343369       0.47122083       2.55763738       0.00000000
Si      -2.29710177      -0.10557549       2.66392263       0.00000000
Si      -0.75297267      -2.03856318       2.76948390       0.00000000
Si       0.71236170       2.28095838       2.71815120       0.00000000
Si      -2.69635338       2.71902906       0.02165006       0.00000000
Si      -2.70772380      -0.00961110      -2.71322133       0.00000000
