10
Lattice="16.28999089631971 0.0 0.0 0.0 16.28999089631971 0.0 0.0 0.0 34.474598006748145" Properties=species:S:1:pos:R:3:initial_magmoms:R:1 pbc="T T T"
Si      -1.13311611      -0.89803512      -1.84597786       0.00000000
Si       0.84142804       1.87323597      -1.13655918       0.00000000
Si       1.43987540      -1.69212375       0.79553627       0.00000000
Si      -1.52792055       0.48928644       1.77909710       0.00000000
Si       0.09653454       1.72942785       3.08172051       0.00000000
Si      -2.53547334       2.47950090       0.80663709       0.00000000
Si       0.16586478      -3.69719469       0.28438112       0.00000000
Si      -3.13171992       0.30418317      -2.06637408       0.00000000
Si      -0.76475034      -3.25480716      -1.81660548       0.00000000
Si      -2.48774364      -1.92661830       2.14811340       0.00000000
