10
Lattice="16.28999089631971 0.0 0.0 0.0 16.28999089631971 0.0 0.0 0.0 34.474598006748145" Properties=species:S:1:pos:R:3:initial_magmoms:R:1 pbc="T T T"
Si       0.39871404      -2.27561526       0.20657191       0.00000000
Si      -2.19835179       0.51904827      -0.54352682       0.00000000
Si       0.10173105       0.56203758       2.31200573       0.00000000
Si       1.19402442      -0.20588931      -2.49065320       0.00000000
Si       2.81847951       1.03425210      -1.18802979       0.00000000
Si       0.23420133      -2.62179405      -2.12163690       0.00000000
Si       2.77130367      -2.08327923       0.65453508       0.00000000
Si       3.51336760       0.11681559       0.85276413       0.00000000
Si      -2.92351743       1.86518871       1.29514242       0.00000000
Si      -1.97496702       1.86644304      -2.52564494       0.00000000
