10
Lattice="16.28999089631971 0.0 0.0 0.0 16.28999089631971 0.0 0.0 0.0 34.474598006748145" Properties=species:S:1:pos:R:3:initial_magmoms:R:1 pbc="T T T"
Si      -0.47350143       0.73337580      -2.20761659       0.00000000
Si      -1.66112388      -1.74200373       0.29848124       0.00000000
Si      -1.45549521       1.56115215       1.30555376       0.00000000
Si       2.56786505      -0.31403862       0.41493649       0.00000000
Si       0.24464322       1.29158523       2.83322747       0.00000000
Si      -0.02080233       3.03709131      -1.91354811       0.00000000
Si      -2.75586075       0.21828600      -2.56987587       0.00000000
Si      -1.37098269       3.55384269      -0.00258560       0.00000000
Si      -1.78733880      -2.02473297       2.71032546       0.00000000
Si      -0.61211304      -3.75505677      -0.40683496       0.00000000
