10
Lattice="16.28999089631971 0.0 0.0 0.0 16.28999089631971 0.0 0.0 0.0 34.474598006748145" Properties=species:S:1:pos:R:3:initial_magmoms:R:1 pbc="T T T"
Si      -1.26591219       1.43725041      -1.30159952       0.00000000
Si      -1.35645201      -1.33369488       1.35850332       0.00000000
Si       1.35739098       1.38422646       1.35529718       0.00000000
Si       1.23487878      -1.38595320      -1.51447683       0.00000000
Si       0.53660142       2.13793218      -2.71345224       0.00000000
Si       2.22355961       0.38327112      -2.88230351       0.00000000
Si      -0.00115862      -2.68895772       2.71800985       0.00000000
Si       2.71080980      -2.69698869      -0.03244751       0.00000000
Si      -2.71860552      -2.69016318      -0.02871046       0.00000000
Si       2.71471940       0.02518434       2.71732036       0.00000000
