10
Lattice="16.28999089631971 0.0 0.0 0.0 16.28999089631971 0.0 0.0 0.0 34.474598006748145" Properties=species:S:1:pos:R:3:initial_magmoms:R:1 pbc="T T T"
Si      -1.43987540       1.69212375      -0.79553627       0.00000000
Si      -0.17122582      -0.64462788       2.32358920       0.00000000
Si      -1.27401062      -2.00507094      -0.51115515       0.00000000
Si       2.36384679       0.29019006      -0.71931289       0.00000000
Si       2.87691663      -1.60971264       0.55704087       0.00000000
Si       2.12246157      -0.80746272       2.72115049       0.00000000
Si       1.33480749      -1.94663871      -2.71173892       0.00000000
Si      -2.20462574      -1.56268341      -2.61214175       0.00000000
Si      -2.57299151       0.79408863      -2.64151412       0.00000000
Si      -2.96779595       2.18141019       0.98356083       0.00000000
