10
Lattice="16.28999089631971 0.0 0.0 0.0 16.28999089631971 0.0 0.0 0.0 34.474598006748145" Properties=species:S:1:pos:R:3:initial_magmoms:R:1 pbc="T T T"
Si       2.07562523      -0.49945140      -1.10211904       0.00000000
Si      -0.67023576      -2.26157328       0.47361229       0.00000000
Si       0.65067996       1.67943384       1.67191551       0.00000000
Si      -1.68666660       0.58064076      -1.71783570       0.00000000
Si       0.53351379       0.09358605       3.39337105       0.00000000
Si       3.70386449       0.38586123       0.36594806       0.00000000
Si       1.88125784      -2.87627643      -1.48644207       0.00000000
Si      -2.43193410       2.69069686      -1.05785363       0.00000000
Si      -0.45856350      -3.35547936      -1.67725908       0.00000000
Si       1.86793425      -1.77015285       2.97591791       0.00000000
