10
Lattice="16.28999089631971 0.0 0.0 0.0 16.28999089631971 0.0 0.0 0.0 34.474598006748145" Properties=species:S:1:pos:R:3:initial_magmoms:R:1 pbc="T T T"
Si       0.49840884      -1.16349696      -1.97384421       0.00000000
Si       1.10959335      -1.09203273       1.77537384       0.00000000
Si      -2.26404936       0.46275003       0.53414972       0.00000000
Si       1.07440695       2.13907248       0.01430697       0.00000000
Si       2.88296740      -0.82626138      -1.93264704       0.00000000
Si      -0.31594455       3.26473821       1.63716510       0.00000000
Si      -2.45516364      -0.35464959       2.76631224       0.00000000
Si      -2.40613074       2.76992344       0.65836177       0.00000000
Si      -0.24058701      -0.57528135       3.68633635       0.00000000
Si       0.65689425      -3.39574824       1.48130535       0.00000000
