10
Lattice="16.28999089631971 0.0 0.0 0.0 16.28999089631971 0.0 0.0 0.0 34.474598006748145" Properties=species:S:1:pos:R:3:initial_magmoms:R:1 pbc="T T T"
Si      -0.12997791       1.01633310      -2.14835472       0.00000000
Si       0.59906475      -2.28895677       0.55700639       0.00000000
Si       1.74418659       1.24841673       1.19737241       0.00000000
Si      -2.23866302      -0.40606083       0.96025599       0.00000000
Si      -0.16011441      -2.00327904       2.71680669       0.00000000
Si      -2.48226043       0.70519410      -2.55794765       0.00000000
Si       0.20781153       2.87239941       2.26029381       0.00000000
Si       0.32482260       3.31346745      -1.84604681       0.00000000
Si       0.74891646      -0.39672666      -3.79034627       0.00000000
Si      -3.85304831       0.60720975      -0.56190179       0.00000000
