10
Lattice="16.28999089631971 0.0 0.0 0.0 16.28999089631971 0.0 0.0 0.0 34.474598006748145" Properties=species:S:1:pos:R:3:initial_magmoms:R:1 pbc="T T T"
Si      -0.88713452       1.10069901       1.88746155       0.00000000
Si      -1.61438528       1.01327058      -1.52215778       0.00000000
Si       2.23866302       0.40606083      -0.96025599       0.00000000
Si      -1.38072152      -2.10074211       0.19840142       0.00000000
Si       2.07854861      -1.59721821       1.75655070       0.00000000
Si      -2.89969886      -0.92680326      -1.23394998       0.00000000
Si       2.83772777      -1.88289594      -0.40324960       0.00000000
Si       0.97467305      -3.42315779      -0.87234572       0.00000000
Si      -0.24359740       1.11125493      -3.51820364       0.00000000
Si      -2.01013454      -0.55263825       3.14164226       0.00000000
