10
Lattice="16.28999089631971 0.0 0.0 0.0 16.28999089631971 0.0 0.0 0.0 34.474598006748145" Properties=species:S:1:pos:R:3:initial_magmoms:R:1 pbc="T T T"
Si      -0.77530626       1.12534578      -1.84873583       0.00000000
Si       1.91927151       0.78760521       1.04051290       0.00000000
Si       0.52059582      -2.02948965      -1.01713911       0.00000000
Si      -1.78320766       0.52729101       1.41163215       0.00000000
Si       0.66437136       0.07442901      -3.38506267       0.00000000
Si      -0.78862985       2.23146936       2.61362416       0.00000000
Si       1.32299235       2.89285965       1.85101115       0.00000000
Si      -3.32679986       1.74004893       0.11131854       0.00000000
Si       2.44543851      -0.71781885       2.77630988       0.00000000
Si      -3.11512760       0.64614285      -2.03955283       0.00000000
