10
Lattice="16.28999089631971 0.0 0.0 0.0 16.28999089631971 0.0 0.0 0.0 34.474598006748145" Properties=species:S:1:pos:R:3:initial_magmoms:R:1 pbc="T T T"
Si       1.33628499       1.36862064       1.35468009       0.00000000
Si      -1.35412906       1.35544203      -1.35636934       0.00000000
Si       1.36001952      -1.35979309      -1.35740358       0.00000000
Si      -1.35325103      -1.35218077       1.37322743       0.00000000
Si      -2.71199897       2.71197549       0.00792916       0.00000000
Si       0.03642444      -2.59013492       2.82953869       0.00000000
Si      -2.71231366      -0.00226431      -2.71342818       0.00000000
Si       0.00283446       2.71280628      -2.71366950       0.00000000
Si      -2.71429586      -2.71258280       0.00386116       0.00000000
Si       0.00237834      -2.71670797      -2.71366950       0.00000000
