10
Lattice="16.28999089631971 0.0 0.0 0.0 16.28999089631971 0.0 0.0 0.0 34.474598006748145" Properties=species:S:1:pos:R:3:initial_magmoms:R:1 pbc="T T T"
Si      -1.80251361      -0.70068177       1.41185273       0.00000000
Si       1.68695819      -1.75466106      -0.16885126       0.00000000
Si      -1.76001300      -0.85680513      -1.58169003       0.00000000
Si       0.95491654       2.04933806       1.27932540       0.00000000
Si      -1.38747699       1.10136757      -2.77265016       0.00000000
Si       1.03972391       1.82159408      -2.64147424       0.00000000
Si      -0.53660142      -2.13793218       2.71345224       0.00000000
Si       2.19738905       0.60567113       2.69416025       0.00000000
Si      -1.31567067       3.14400977      -1.57072710       0.00000000
Si       0.69827737      -3.52388538       1.19897541       0.00000000
