10
Lattice="16.28999089631971 0.0 0.0 0.0 16.28999089631971 0.0 0.0 0.0 34.474598006748145" Properties=species:S:1:pos:R:3:initial_magmoms:R:1 pbc="T T T"
Si       1.21775537      -1.44775746      -1.40546120       0.00000000
Si       1.03438698       1.61860698       1.42759390       0.00000000
Si      -1.51369223       1.25157699      -1.37936391       0.00000000
Si      -0.79960379      -1.88071308       1.31582719       0.00000000
Si       2.55412344       0.30861405       2.74431743       0.00000000
Si       2.56352277      -0.09971109      -2.75907257       0.00000000
Si       2.59890465       2.74333229       0.07005242       0.00000000
Si       2.58994515      -2.76815970      -0.04557544       0.00000000
Si      -2.69460320      -2.68060095       0.01179032       0.00000000
Si      -0.15181565       2.62088442      -2.75562511       0.00000000
