10
Lattice="10.86 0.0 0.0 0.0 10.86 0.0 0.0 0.0 10.86" Properties=species:S:1:pos:R:3:initial_magmoms:R:1 pbc="T T T"
Si       1.43450826       1.08263340       1.31120382       0.00000000
Si      -1.28049174      -1.63236660       1.31120382       0.00000000
Si       1.43450826      -1.63236660      -1.40379618       0.00000000
Si      -1.86276150      -0.49661694      -1.77786888       0.00000000
Si       2.67229848       2.35549056       0.11711424       0.00000000
Si       0.07700826       2.44013340       2.66870382       0.00000000
Si      -2.68268064       2.47237674       0.25145244       0.00000000
Si      -2.63799174      -0.27486660       2.66870382       0.00000000
Si       2.79200826      -0.27486660       2.66870382       0.00000000
Si       2.86289148      -0.17625780      -2.69246550       0.00000000
