10
Lattice="10.86 0.0 0.0 0.0 10.86 0.0 0.0 0.0 10.86" Properties=species:S:1:pos:R:3:initial_magmoms:R:1 pbc="T T T"
Si       1.37191122       1.25617620       1.21744944       0.00000000
Si      -1.34308878      -1.45882380       1.21744944       0.00000000
Si      -1.34308878       1.25617620      -1.49755056       0.00000000
Si       0.01441122       2.61367620       2.57494944       0.00000000
Si      -2.70058878      -0.10132380       2.57494944       0.00000000
Si       2.72941122      -0.10132380       2.57494944       0.00000000
Si      -2.70058878       2.61367620      -0.14005056       0.00000000
Si       2.72941122       2.61367620      -0.14005056       0.00000000
Si       0.01441122      -2.81632380       2.57494944       0.00000000
Si      -2.60354382      -0.08840040      -2.81047026       0.00000000
