10
Lattice="10.86 0.0 0.0 0.0 10.86 0.0 0.0 0.0 10.86" Properties=species:S:1:pos:R:3:initial_magmoms:R:1 pbc="T T T"
Si      -1.23779022      -1.27285716       1.19408958       0.00000000
Si       1.47720978       1.44214284       1.19408958       0.00000000
Si       1.47720978      -1.27285716      -1.52091042       0.00000000
Si      -2.67229848      -2.35549056      -0.11711424       0.00000000
Si      -2.59529022       0.08464284       2.55158958       0.00000000
Si       0.11970978      -2.63035716       2.55158958       0.00000000
Si       0.19059300      -2.53174836      -2.80957974       0.00000000
Si       0.15800214       2.49424878      -2.84814360       0.00000000
Si       0.11970978       2.79964284       2.55158958       0.00000000
Si       2.83470978       0.08464284       2.55158958       0.00000000
