10
Lattice="10.86 0.0 0.0 0.0 10.86 0.0 0.0 0.0 10.86" Properties=species:S:1:pos:R:3:initial_magmoms:R:1 pbc="T T T"
Si       1.31920764      -1.05210594      -1.38776682       0.00000000
Si       1.31920764       1.66289406       1.32723318       0.00000000
Si      -1.39579236       1.66289406      -1.38776682       0.00000000
Si       2.67670764      -2.40960594      -0.03026682       0.00000000
Si      -0.15800214      -2.49424878       2.84814360       0.00000000
Si       2.67670764       0.30539406       2.68473318       0.00000000
Si       0.43164156      -1.89319122      -3.32005404       0.00000000
Si       2.67670764       0.30539406      -2.74526682       0.00000000
Si      -2.76770358       0.40671786       2.82478374       0.00000000
Si      -2.90368164       0.25095288      -2.77869390       0.00000000
