10
Lattice="16.28999089631971 0.0 0.0 0.0 16.28999089631971 0.0 0.0 0.0 34.32429715621058" Properties=species:S:1:pos:R:3:initial_magmoms:R:1 pbc="T T T"
Si       1.55913219       0.95757574       1.40379589       0.00000000
Si      -2.17864415       0.18438651       0.84547656       0.00000000
Si       0.46750671      -2.29702032       0.05203566       0.00000000
Si      -0.35606682       0.54043704      -2.27034758       0.00000000
Si      -0.72858654      -2.99185398      -1.84510362       0.00000000
Si       0.92258415       0.10417455       3.53293323       0.00000000
Si       0.30382479      -1.47865959      -3.32939004       0.00000000
Si      -2.73544449       0.76066857      -2.32914513       0.00000000
Si      -3.48154638      -0.90207504      -0.74288118       0.00000000
Si      -0.10145412      -3.22646256       2.10360005       0.00000000
