10
Lattice="16.28999089631971 0.0 0.0 0.0 16.28999089631971 0.0 0.0 0.0 34.32429715621058" Properties=species:S:1:pos:R:3:initial_magmoms:R:1 pbc="T T T"
Si       0.85885767       1.63880658      -1.48912614       0.00000000
Si      -1.76106303      -0.97850772      -1.31338564       0.00000000
Si       1.59624081      -1.92969711      -0.15191942       0.00000000
Si      -0.17130564       0.87524541       2.46304429       0.00000000
Si       2.75366160       1.66969242       1.63126313       0.00000000
Si       2.29146543       0.38221227      -2.82173340       0.00000000
Si      -0.44232237      -2.32979906      -2.80917070       0.00000000
Si       2.15917434       3.02431995      -0.11907105       0.00000000
Si       1.25892378      -2.93927475       2.01851007       0.00000000
Si      -2.50492959       1.19703807       2.71742180       0.00000000
