10
Lattice="16.28999089631971 0.0 0.0 0.0 16.28999089631971 0.0 0.0 0.0 34.32429715621058" Properties=species:S:1:pos:R:3:initial_magmoms:R:1 pbc="T T T"
Si      -0.44266446       1.91954844       1.24940511       0.00000000
Si       2.20742532      -0.71368119       0.56693473       0.00000000
Si      -1.90777077      -1.27957950       0.72849929       0.00000000
Si      -0.09871740       0.42275808      -2.39353755       0.00000000
Si      -2.65292424       1.99705626       0.29412507       0.00000000
Si       2.22298227       0.80523099      -2.67352100       0.00000000
Si      -3.55941387      -0.10107945      -0.49663853       0.00000000
Si       1.18293093       3.38579505       0.31029182       0.00000000
Si       3.30436134      -0.89907768      -1.50409154       0.00000000
Si       2.00248083      -2.88342448       1.33425482       0.00000000
