10
Lattice="16.28999089631971 0.0 0.0 0.0 16.28999089631971 0.0 0.0 0.0 34.32429715621058" Properties=species:S:1:pos:R:3:initial_magmoms:R:1 pbc="T T T"
Si      -0.54336924       1.64599047      -1.53316424       0.00000000
Si      -1.37704257      -1.91826006       0.08735539       0.00000000
Si      -0.31091094       1.19060352       2.02319847       0.00000000
Si       1.39554801      -2.01491729      -0.57970338       0.00000000
Si      -1.25965683      -0.70808883       3.09957299       0.00000000
Si      -2.76213240      -1.75879709      -1.86305524       0.00000000
Si      -2.92280067       2.08591821      -1.42593507       0.00000000
Si      -3.08291508      -1.55638081       1.74007122       0.00000000
Si       0.40075029       1.54577439      -3.63727915       0.00000000
Si       1.29484323      -2.03041513      -3.19480439       0.00000000
