10
Lattice="16.28999089631971 0.0 0.0 0.0 16.28999089631971 0.0 0.0 0.0 34.32429715621058" Properties=species:S:1:pos:R:3:initial_magmoms:R:1 pbc="T T T"
Si       0.70563393      -2.26961307      -0.01812324       0.00000000
Si       0.40185801       0.76705537      -2.21707624       0.00000000
Si      -2.23972839       0.09508310       0.80535143       0.00000000
Si       1.38508983      -0.15946297       1.95041063       0.00000000
Si      -0.32078268       0.20241628       3.60312646       0.00000000
Si      -3.37056390      -1.51745490      -0.56384554       0.00000000
Si      -0.68255100      -0.76093101      -3.60292051       0.00000000
Si       2.76213240       1.75879709       1.86305524       0.00000000
Si      -0.16066827       3.84471530       0.43712017       0.00000000
Si       2.71376739       1.14948756      -2.65550073       0.00000000
