10
Lattice="16.28999089631971 0.0 0.0 0.0 16.28999089631971 0.0 0.0 0.0 34.32429715621058" Properties=species:S:1:pos:R:3:initial_magmoms:R:1 pbc="T T T"
Si       1.43260776      -1.25659431      -1.33260726       0.00000000
Si       1.30031667       1.38551337       1.37005509       0.00000000
Si      -1.31113323       1.46070801      -1.29986186       0.00000000
Si      -0.85885767      -1.63880658       1.48912614       0.00000000
Si       1.89480393       0.03088584       3.12038927       0.00000000
Si      -2.61992070      -2.61731430       0.17574050       0.00000000
Si       0.06371019      -2.61907362      -2.68024857       0.00000000
Si      -2.65424373       0.10171476      -2.67455073       0.00000000
Si       2.68560198      -2.67589314       0.06751593       0.00000000
Si       2.77850385       0.09914094      -2.67736532       0.00000000
