10
Lattice="16.28999089631971 0.0 0.0 0.0 16.28999089631971 0.0 0.0 0.0 34.32429715621058" Properties=species:S:1:pos:R:3:initial_magmoms:R:1 pbc="T T T"
Si       0.32203701       1.94919624       1.22070999       0.00000000
Si      -2.10962016      -0.60359337       0.81300576       0.00000000
Si       1.58118885      -1.63212768       0.85323386       0.00000000
Si      -0.43520364       0.66469716      -2.30707460       0.00000000
Si       0.63706932      -1.53191160       2.95734877       0.00000000
Si       2.43273231       2.54803293       0.41927152       0.00000000
Si       0.88549182       0.86216454       3.35925219       0.00000000
Si      -1.84160079       3.01218390       0.74837307       0.00000000
Si      -2.59315623      -2.46275478      -0.48850367       0.00000000
Si      -1.74236211      -1.09198386       3.06457794       0.00000000
