10
Lattice="16.28999089631971 0.0 0.0 0.0 16.28999089631971 0.0 0.0 0.0 34.32429715621058" Properties=species:S:1:pos:R:3:initial_magmoms:R:1 pbc="T T T"
Si      -0.48353607      -1.85916141      -1.30150943       0.00000000
Si       0.36725805      -0.48839049       2.25157218       0.00000000
Si       2.10962016       0.60359337      -0.81300576       0.00000000
Si      -1.45705905       1.83125664       0.31746560       0.00000000
Si       2.43165717       2.55278961       0.40770423       0.00000000
Si       2.74668948      -0.92831823       2.14434301       0.00000000
Si       0.26801937       3.61577727      -0.06463269       0.00000000
Si      -1.90772190      -0.80884737       3.05064226       0.00000000
Si       0.92978433      -3.56605042      -0.40262423       0.00000000
Si       0.78988581       1.56193407       3.32060301       0.00000000
