10
Lattice="16.28999089631971 0.0 0.0 0.0 16.28999089631971 0.0 0.0 0.0 34.32429715621058" Properties=species:S:1:pos:R:3:initial_magmoms:R:1 pbc="T T T"
Si      -0.36725805       0.48839049      -2.25157218       0.00000000
Si       0.42262776       2.05032456       1.06903083       0.00000000
Si       2.37943143      -0.43992774      -0.10722916       0.00000000
Si      -2.27497995      -0.32045688       0.79907008       0.00000000
Si       2.62785393       1.95414840       0.29467426       0.00000000
Si       0.98254764       1.01615391       3.20671493       0.00000000
Si      -1.82431710       2.31964713      -1.93410658       0.00000000
Si       1.74236211       1.09198386      -3.06457794       0.00000000
Si       2.92280067      -2.08591821       1.42593507       0.00000000
Si       0.16066827      -3.84471530      -0.43712017       0.00000000
