10
Lattice="16.28999089631971 0.0 0.0 0.0 16.28999089631971 0.0 0.0 0.0 34.32429715621058" Properties=species:S:1:pos:R:3:initial_magmoms:R:1 pbc="T T T"
Si      -2.20522617       0.09617616       0.77435658       0.00000000
Si       1.83356982       0.58266072       1.41419616       0.00000000
Si      -0.24842250      -2.39407614      -0.40190342       0.00000000
Si      -0.56345481       1.08703170      -2.13854221       0.00000000
Si      -2.62785393      -1.95414840      -0.29467426       0.00000000
Si       0.54048591       2.21767173       2.57305373       0.00000000
Si      -1.64530629      -0.93799449       2.91204067       0.00000000
Si      -0.88549182      -0.86216454      -3.35925219       0.00000000
Si       0.69569703      -2.49429222      -2.50601834       0.00000000
Si      -2.81268027       2.27050020       0.08110836       0.00000000
