10
Lattice="16.28999089631971 0.0 0.0 0.0 16.28999089631971 0.0 0.0 0.0 34.32429715621058" Properties=species:S:1:pos:R:3:initial_magmoms:R:1 pbc="T T T"
Si       2.20522617      -0.09617616      -0.77435658       0.00000000
Si      -0.42262776      -2.05032456      -1.06903083       0.00000000
Si      -0.60745410       2.17432404      -0.69324822       0.00000000
Si       0.55991988      -1.03417065       2.13768410       0.00000000
Si       1.95680367      -2.49025230      -1.17626000       0.00000000
Si       1.64177136       0.99085554      -2.91289878       0.00000000
Si      -2.69760771      -2.37078144      -0.26996075       0.00000000
Si      -0.78988581      -1.56193407      -3.32060301       0.00000000
Si      -2.24694486       0.26932257      -3.00313741       0.00000000
Si       1.47413097       0.73080198       3.40310292       0.00000000
