10
Lattice="16.28999089631971 0.0 0.0 0.0 16.28999089631971 0.0 0.0 0.0 34.32429715621058" Properties=species:S:1:pos:R:3:initial_magmoms:R:1 pbc="T T T"
Si       1.35635427       1.35599589       1.35790428       0.00000000
Si       1.35809730      -1.35742941      -1.35732077       0.00000000
Si      -1.35746199       1.35811359      -1.35732077       0.00000000
Si      -1.35878148      -1.35804843       1.35694320       0.00000000
Si      -0.00169416       2.71275741       2.71536234       0.00000000
Si      -2.71451673       2.71476108      -0.00024027       0.00000000
Si      -0.00013032       2.71511946      -2.71440126       0.00000000
Si      -2.71467963      -0.00158013       2.71498477       0.00000000
Si      -2.71542897      -2.71432125      -0.00027459       0.00000000
Si       2.71528236      -0.00083079      -2.71446991       0.00000000
