10
Lattice="16.28999089631971 0.0 0.0 0.0 16.28999089631971 0.0 0.0 0.0 34.32429715621058" Properties=species:S:1:pos:R:3:initial_magmoms:R:1 pbc="T T T"
Si      -1.35733167      -1.35700587       1.35708050       0.00000000
Si       1.35819504       1.35703845       1.35721779       0.00000000
Si      -1.35822762       1.35584928      -1.35855644       0.00000000
Si       1.35853713      -1.35509994      -1.36061590       0.00000000
Si      -2.70914103      -0.00289962      -2.71604540       0.00000000
Si      -2.71438641      -0.00035838       2.71416099       0.00000000
Si      -2.71433754       2.71477737      -0.00164757       0.00000000
Si       0.00006516       2.71502172       2.71419531       0.00000000
Si      -2.71562445      -2.71378368      -0.00027459       0.00000000
Si       0.00013032      -2.71511946       2.71440126       0.00000000
