10
Lattice="16.28999089631971 0.0 0.0 0.0 16.28999089631971 0.0 0.0 0.0 34.32429715621058" Properties=species:S:1:pos:R:3:initial_magmoms:R:1 pbc="T T T"
Si       1.34886087       1.34895861       1.36933428       0.00000000
Si       1.35449721      -1.35979146      -1.35783563       0.00000000
Si      -1.36133901       1.35430173      -1.35684022       0.00000000
Si      -1.37663532      -1.35488817       1.37822427       0.00000000
Si       2.71213839      -0.00144981      -2.71484748       0.00000000
Si       2.71239903       2.71492398       0.00274595       0.00000000
Si      -0.00241092       2.71296918      -2.71471018       0.00000000
Si       2.71300176      -2.71645524       0.00072081       0.00000000
Si      -2.71938744       2.71106325       0.00061784       0.00000000
Si      -0.00245979      -2.71671588      -2.71519072       0.00000000
