10
Lattice="16.28999089631971 0.0 0.0 0.0 16.28999089631971 0.0 0.0 0.0 34.32429715621058" Properties=species:S:1:pos:R:3:initial_magmoms:R:1 pbc="T T T"
Si      -1.35635427      -1.35599589      -1.35790428       0.00000000
Si      -1.35804843       1.35676152       1.35745806       0.00000000
Si       1.36133901      -1.35430173       1.35684022       0.00000000
Si       1.35892809       1.35866745      -1.35786995       0.00000000
Si      -2.69627193      -0.00030951       2.72644910       0.00000000
Si       0.00174303      -2.71342530      -2.71522504       0.00000000
Si      -2.71381626       0.00211770      -2.71522504       0.00000000
Si      -2.71513575      -2.71404432      -0.00096108       0.00000000
Si       2.71583622      -2.71409319      -0.00099541       0.00000000
Si       2.71611315       2.71407690      -0.00027459       0.00000000
