10
Lattice="16.28999089631971 0.0 0.0 0.0 16.28999089631971 0.0 0.0 0.0 34.32429715621058" Properties=species:S:1:pos:R:3:initial_magmoms:R:1 pbc="T T T"
Si      -0.18122625      -2.33336331      -0.01911864       0.00000000
Si      -0.82077165       0.47296386       2.17763760       0.00000000
Si       2.34559710       0.33360291      -0.47875556       0.00000000
Si      -1.28642130       1.32603858      -1.59831179       0.00000000
Si      -1.69736913       3.32474013      -0.17701050       0.00000000
Si       1.21251357      -3.07908693       1.78826256       0.00000000
Si      -1.46614887       2.76509718       2.14715761       0.00000000
Si      -2.99685501      -0.43056099       2.33470567       0.00000000
Si       0.04927725      -3.14618544      -2.27103407       0.00000000
Si       2.63541249       2.18955519      -1.91028550       0.00000000
