10
Lattice="16.28999089631971 0.0 0.0 0.0 16.28999089631971 0.0 0.0 0.0 34.32429715621058" Properties=species:S:1:pos:R:3:initial_magmoms:R:1 pbc="T T T"
Si      -2.17608336      -0.90352485       0.15706807       0.00000000
Si       0.82077165      -0.47296386      -2.17763760       0.00000000
Si      -0.64537722       2.29213332      -0.03047999       0.00000000
Si       1.06336233      -0.83367333       2.00272089       0.00000000
Si      -2.39676399      -0.13369203       2.43390295       0.00000000
Si      -0.32904171       0.28241973       3.58980862       0.00000000
Si       0.63954540      -2.80632717      -2.19675625       0.00000000
Si       0.92268189       3.32351838       1.40104994       0.00000000
Si       1.01950965      -3.20046372       1.76656959       0.00000000
Si      -0.87659748       2.85177627      -2.35464810       0.00000000
