10
Lattice="16.28999089631971 0.0 0.0 0.0 16.28999089631971 0.0 0.0 0.0 34.32429715621058" Properties=species:S:1:pos:R:3:initial_magmoms:R:1 pbc="T T T"
Si       1.39240404      -1.11609306      -1.58708774       0.00000000
Si      -2.06772228      -0.41611176      -1.15590568       0.00000000
Si       0.61217820       2.34802431       0.02464486       0.00000000
Si      -0.94784994      -0.26981127       2.24522218       0.00000000
Si      -1.67052321       2.74152555       0.55190068       0.00000000
Si       0.32904171      -0.28241973      -3.58980862       0.00000000
Si      -3.05870814      -1.98609309       0.25932021       0.00000000
Si      -3.13012350       1.64789640      -0.98184707       0.00000000
Si      -1.68344118      -2.60164332       2.17132193       0.00000000
Si      -1.90837350       1.90669563       2.74223828       0.00000000
