10
Lattice="16.28999089631971 0.0 0.0 0.0 16.28999089631971 0.0 0.0 0.0 34.32429715621058" Properties=species:S:1:pos:R:3:initial_magmoms:R:1 pbc="T T T"
Si      -1.69398081      -0.20412999      -1.61166395       0.00000000
Si       1.97156241      -0.87654861      -0.96681302       0.00000000
Si       0.53090739       2.33829918       0.02285999       0.00000000
Si      -0.97208946      -0.94196925       2.14678004       0.00000000
Si      -2.65450437       1.97237691      -1.11464785       0.00000000
Si       3.26733417      -0.95842215       1.15525352       0.00000000
Si      -2.51515971      -2.41548120       1.00642328       0.00000000
Si      -0.26593425      -3.59894970      -1.21322729       0.00000000
Si      -1.46403117       3.53553273       0.17539726       0.00000000
Si      -2.42957205      -2.53596204      -1.68556420       0.00000000
