10
Lattice="16.28999089631971 0.0 0.0 0.0 16.28999089631971 0.0 0.0 0.0 34.32429715621058" Properties=species:S:1:pos:R:3:initial_magmoms:R:1 pbc="T T T"
Si       0.60745410      -2.17432404       0.69324822       0.00000000
Si       1.54307025       1.47351195       1.14035676       0.00000000
Si      -2.18302290       1.02579759      -0.46341259       0.00000000
Si       0.08558766      -0.12048084      -2.69198748       0.00000000
Si       2.24922546      -1.18346850      -2.21965056       0.00000000
Si      -1.63949076      -1.90500147      -2.30988919       0.00000000
Si       0.82117890       2.21135121      -2.61808723       0.00000000
Si       2.81268027      -2.27050020      -0.08110836       0.00000000
Si       2.51515971       2.41548120      -1.00642328       0.00000000
Si      -3.63866309      -0.40457844       0.76663361       0.00000000
