10
Lattice="16.28999089631971 0.0 0.0 0.0 16.28999089631971 0.0 0.0 0.0 34.32429715621058" Properties=species:S:1:pos:R:3:initial_magmoms:R:1 pbc="T T T"
Si      -1.35514881       1.35576783       1.35532995       0.00000000
Si       1.35884664       1.35583426      -1.35776698       0.00000000
Si      -1.35663120      -1.35938421      -1.35732077       0.00000000
Si       1.35747828      -1.35876519       1.35992941       0.00000000
Si      -2.71366965      -0.01514970       2.69730775       0.00000000
Si      -2.71288773       2.71039929       0.00041189       0.00000000
Si       0.00083079       2.71362634      -2.71426396       0.00000000
Si       2.71508688       2.71290795      -0.00013730       0.00000000
Si      -2.71376739      -0.00205254      -2.71433261       0.00000000
Si      -2.71334385      -2.71612944       0.00078946       0.00000000
