10
Lattice="16.28999089631971 0.0 0.0 0.0 16.28999089631971 0.0 0.0 0.0 34.32429715621058" Properties=species:S:1:pos:R:3:initial_magmoms:R:1 pbc="T T T"
Si      -1.29512016       1.42283769      -1.35097077       0.00000000
Si       1.44435285      -1.30805442      -1.33219537       0.00000000
Si       0.74344302       1.82293964       1.30628051       0.00000000
Si      -1.91335824      -1.04231565       1.20546999       0.00000000
Si       0.40612599       0.81336200       3.47671000       0.00000000
Si      -3.44557935       0.86636151       1.24360431       0.00000000
Si      -2.64471408       0.06064767      -2.71131207       0.00000000
Si       0.06791301      -2.65388535      -2.70671261       0.00000000
Si      -2.61386082       2.77412903       0.14481429       0.00000000
Si       2.69166186       2.71555019       0.03658972       0.00000000
