10
Lattice="16.28999089631971 0.0 0.0 0.0 16.28999089631971 0.0 0.0 0.0 34.32429715621058" Properties=species:S:1:pos:R:3:initial_magmoms:R:1 pbc="T T T"
Si      -1.35834165       1.35585417       1.36240076       0.00000000
Si       1.35739683      -1.36197121       1.36192022       0.00000000
Si       1.34514675       1.35888411      -1.37755838       0.00000000
Si      -1.36992384      -1.36181970      -1.38522987       0.00000000
Si      -2.71572219       2.71114959       0.00411892       0.00000000
Si       2.71762812       2.71369083       0.00648730       0.00000000
Si      -0.00078192       2.71287633       2.71968721       0.00000000
Si      -2.71624347      -2.71789106       0.00411892       0.00000000
Si       2.71508688      -0.00273835       2.71937829       0.00000000
Si      -2.71580364      -0.00164203       2.71972153       0.00000000
