10
Lattice="16.28999089631971 0.0 0.0 0.0 16.28999089631971 0.0 0.0 0.0 34.32429715621058" Properties=species:S:1:pos:R:3:initial_magmoms:R:1 pbc="T T T"
Si      -1.34514675      -1.35888411       1.37755838       0.00000000
Si       1.37248137       1.35480672       1.38404568       0.00000000
Si       1.28734983      -1.41968490      -1.43943483       0.00000000
Si      -1.42061832       1.36777356      -1.38041073       0.00000000
Si       2.70231552      -2.71031940       0.02899032       0.00000000
Si       2.71568961       2.69928558       0.01421027       0.00000000
Si      -2.71507059      -2.72070380      -0.00767148       0.00000000
Si      -2.70348840      -0.00302994       2.73995915       0.00000000
Si       0.01216863       2.71164969       2.73947861       0.00000000
Si      -2.71119357       2.74004316       0.01940697       0.00000000
