10
Lattice="16.28999089631971 0.0 0.0 0.0 16.28999089631971 0.0 0.0 0.0 34.32429715621058" Properties=species:S:1:pos:R:3:initial_magmoms:R:1 pbc="T T T"
Si       1.35746199       1.35720135       1.35752671       0.00000000
Si      -1.35760860       1.35770634      -1.35690887       0.00000000
Si      -1.35837423      -1.35753041       1.35725212       0.00000000
Si       1.35826020      -1.35790834      -1.35721779       0.00000000
Si      -2.71412577      -0.00294849       2.71285667       0.00000000
Si       0.00329058      -2.71399411       2.71450423       0.00000000
Si       2.71476108       0.00058644      -2.71433261       0.00000000
Si      -2.71461447      -2.71460410      -0.00037757       0.00000000
Si      -2.71516833       0.00068418      -2.71419531       0.00000000
Si      -2.71479366       2.71500543      -0.00017162       0.00000000
