10
Lattice="16.28999089631971 0.0 0.0 0.0 16.28999089631971 0.0 0.0 0.0 34.32429715621058" Properties=species:S:1:pos:R:3:initial_magmoms:R:1 pbc="T T T"
Si      -1.08137907       1.70430867      -1.16942946       0.00000000
Si       2.01857535       1.16745543       0.12346457       0.00000000
Si      -1.09693602       0.18539649       2.07102627       0.00000000
Si      -0.22529070      -2.01362645      -1.31060537       0.00000000
Si       0.59512257       2.10333222      -2.80590989       0.00000000
Si       2.44503126       1.03669560       2.42370863       0.00000000
Si      -1.30188051      -1.98434680       2.83834637       0.00000000
Si      -3.30436134       0.89907768       1.50409154       0.00000000
Si       3.63824118      -0.10818189      -0.88731790       0.00000000
Si      -3.40307874       1.32183576      -0.88944601       0.00000000
