10
Lattice="16.28999089631971 0.0 0.0 0.0 16.28999089631971 0.0 0.0 0.0 34.32429715621058" Properties=species:S:1:pos:R:3:initial_magmoms:R:1 pbc="T T T"
Si       1.82855250       1.33879560       0.58409689       0.00000000
Si      -2.22123924      -0.11825225       0.81897819       0.00000000
Si      -0.40825998       0.31273412      -2.31881351       0.00000000
Si       0.74668473      -2.16345570       0.69290497       0.00000000
Si      -0.71860077      -3.14186568      -0.83819980       0.00000000
Si      -0.18443538      -1.94484390      -2.83278583       0.00000000
Si       3.10756185       1.16138936      -1.39085562       0.00000000
Si      -2.81316897      -2.39061975      -0.04959864       0.00000000
Si       1.47831750       1.64300321      -3.00818308       0.00000000
Si       0.97624341       3.25595756       1.55399910       0.00000000
