10
Lattice="16.28999089631971 0.0 0.0 0.0 16.28999089631971 0.0 0.0 0.0 34.32429715621058" Properties=species:S:1:pos:R:3:initial_magmoms:R:1 pbc="T T T"
Si      -1.29057525       1.37226960       1.39981770       0.00000000
Si      -1.89705195      -0.87509880      -1.07539971       0.00000000
Si       1.39585752       1.22803794      -1.51631584       0.00000000
Si       1.42061832      -1.36777356       1.38041073       0.00000000
Si       2.71953405       2.61123813      -0.03825445       0.00000000
Si      -0.04751793       2.55702501      -2.81566284       0.00000000
Si      -2.64025062      -0.01550808       2.76208803       0.00000000
Si      -2.61218295       2.80134243      -0.05239950       0.00000000
Si       0.07278372       2.69905752       2.76126425       0.00000000
Si       0.07547157      -2.72665767       2.75796912       0.00000000
