10
Lattice="16.28999089631971 0.0 0.0 0.0 16.28999089631971 0.0 0.0 0.0 34.32429715621058" Properties=species:S:1:pos:R:3:initial_magmoms:R:1 pbc="T T T"
Si      -2.13205149       0.87278562      -0.29333561       0.00000000
Si       0.45059769      -1.05621102      -2.03220547       0.00000000
Si       1.71717777       1.81936494       0.01475946       0.00000000
Si      -0.69118470      -1.25784864       2.08767357       0.00000000
Si      -2.10395124       2.19317157       1.58554314       0.00000000
Si       2.96471484       0.57984255       1.66061042       0.00000000
Si      -1.54095255       0.65886534       3.22730952       0.00000000
Si       1.41441183       0.78721425      -3.29963085       0.00000000
Si       1.17923310      -2.42198091       3.00516254       0.00000000
Si      -1.34125344      -1.83399336      -3.34620895       0.00000000
