10
Lattice="16.28999089631971 0.0 0.0 0.0 16.28999089631971 0.0 0.0 0.0 34.32429715621058" Properties=species:S:1:pos:R:3:initial_magmoms:R:1 pbc="T T T"
Si      -0.59448726       1.35462753      -1.75033419       0.00000000
Si       0.02810025       1.32038595       1.87887875       0.00000000
Si       2.13205149      -0.87278562       0.29333561       0.00000000
Si      -2.92496724      -0.79444701       0.83178116       0.00000000
Si      -2.27491479       1.54893465       1.92569712       0.00000000
Si      -1.98169479       2.72315043      -0.31049777       0.00000000
Si       1.44086679      -2.13063426       2.38100918       0.00000000
Si       0.59109894      -0.21392028       3.52064513       0.00000000
Si      -2.75366160      -1.66969242      -1.63126313       0.00000000
Si      -1.89480393      -0.03088584      -3.12038927       0.00000000
