10
Lattice="16.28999089631971 0.0 0.0 0.0 16.28999089631971 0.0 0.0 0.0 34.32429715621058" Properties=species:S:1:pos:R:3:initial_magmoms:R:1 pbc="T T T"
Si       1.34961021       1.35684297       1.36931025       0.00000000
Si      -1.36399102      -1.36260963       1.37274268       0.00000000
Si      -1.50104205       1.28930463      -1.31833521       0.00000000
Si       1.45639116      -1.31903388      -1.36789265       0.00000000
Si       2.69076591       2.71906164      -0.01062681       0.00000000
Si      -2.69709362      -2.71551042       0.00965543       0.00000000
Si       2.70254358      -2.71718829       0.03572132       0.00000000
Si       2.70868491      -0.00345348       2.72862182       0.00000000
Si      -2.73072176       2.71200807       0.03558059       0.00000000
Si      -0.00750969       2.71440270       2.72906804       0.00000000
