10
Lattice="16.28999089631971 0.0 0.0 0.0 16.28999089631971 0.0 0.0 0.0 34.32429715621058" Properties=species:S:1:pos:R:3:initial_magmoms:R:1 pbc="T T T"
Si       1.35669636       1.35752715       1.35766401       0.00000000
Si      -1.35738054       1.35752715      -1.35701185       0.00000000
Si       1.35785295      -1.35782037      -1.35701185       0.00000000
Si      -1.35764118      -1.35834165       1.35701185       0.00000000
Si      -2.71213839       0.00144981       2.71484748       0.00000000
Si      -0.00096111       2.71322982      -2.71488180       0.00000000
Si      -2.71454931      -0.00107514      -2.71436694       0.00000000
Si      -2.71454931       2.71441899       0.00013730       0.00000000
Si       0.00068418      -2.71490769      -2.71484748       0.00000000
Si       2.71557558      -0.00254124      -2.71426396       0.00000000
