10
Lattice="16.28999089631971 0.0 0.0 0.0 16.28999089631971 0.0 0.0 0.0 34.32429715621058" Properties=species:S:1:pos:R:3:initial_magmoms:R:1 pbc="T T T"
Si      -1.35827649       1.35588186       1.36198887       0.00000000
Si       1.35604476      -1.36081773       1.36137103       0.00000000
Si       1.38036573       1.34416935      -1.36884001       0.00000000
Si      -1.36026387      -1.37021706      -1.37679638       0.00000000
Si       2.71344159      -2.71311579       0.00209378       0.00000000
Si       2.71691136       2.71052568       0.00816919       0.00000000
Si      -2.71586880       2.71261080       0.00360405       0.00000000
Si      -2.71441899      -2.71427238       0.00133865       0.00000000
Si       0.00011403       2.71277370       2.71906937       0.00000000
Si       2.71492398      -0.00185706       2.71886342       0.00000000
