10
Lattice="16.28999089631971 0.0 0.0 0.0 16.28999089631971 0.0 0.0 0.0 34.32429715621058" Properties=species:S:1:pos:R:3:initial_magmoms:R:1 pbc="T T T"
Si       1.35738054      -1.35703349      -1.35697752       0.00000000
Si       1.35826020       1.35541834       1.35776698       0.00000000
Si      -1.35760045       1.35808501      -1.35670293       0.00000000
Si      -1.35769168      -1.35833669       1.35690887       0.00000000
Si       0.00061902      -2.71084652       2.71491613       0.00000000
Si       2.71599912       0.00078688       2.71268504       0.00000000
Si       2.71451673      -2.71436516       0.00003432       0.00000000
Si      -0.00122175       2.71480581      -2.71429829       0.00000000
Si      -2.71527358      -2.71464209       0.00017162       0.00000000
Si       2.71511946       2.71516419      -0.00017162       0.00000000
