10
Lattice="16.28999089631971 0.0 0.0 0.0 16.28999089631971 0.0 0.0 0.0 34.32429715621058" Properties=species:S:1:pos:R:3:initial_magmoms:R:1 pbc="T T T"
Si      -1.31142645       1.33421616      -1.40322954       0.00000000
Si       1.33654563       1.36635633       1.37700919       0.00000000
Si      -1.38036573      -1.34416935       1.36884001       0.00000000
Si       1.34087877      -1.39641138      -1.59772141       0.00000000
Si      -2.06410590      -0.56193984      -2.76303336       0.00000000
Si       2.67232563      -2.70482418      -0.01057532       0.00000000
Si       2.66747121       2.73489722       0.01975708       0.00000000
Si       2.68991883       0.01361844       2.73154969       0.00000000
Si      -0.44018838      -2.45122146      -2.91471252       0.00000000
Si      -0.02432097      -2.70498708       2.73021104       0.00000000
