10
Lattice="16.28999089631971 0.0 0.0 0.0 16.28999089631971 0.0 0.0 0.0 34.32429715621058" Properties=species:S:1:pos:R:3:initial_magmoms:R:1 pbc="T T T"
Si      -1.35641757       1.35677781       1.35656563       0.00000000
Si       1.35732190      -1.35694071       1.35656563       0.00000000
Si      -1.35743999      -1.35762489      -1.35811022       0.00000000
Si       1.35699610       1.35871632      -1.35783563       0.00000000
Si      -2.71409386      -0.00162900       2.71319991       0.00000000
Si       2.71396939      -0.00066789       2.71378342       0.00000000
Si      -0.00120872      -2.71402803       2.71388640       0.00000000
Si       0.00010263       2.71507059       2.71385207       0.00000000
Si      -2.71518529       0.00118917      -2.71378342       0.00000000
Si      -2.71459885       2.71458189      -0.00054919       0.00000000
