10
Lattice="16.28999089631971 0.0 0.0 0.0 16.28999089631971 0.0 0.0 0.0 34.32429715621058" Properties=species:S:1:pos:R:3:initial_magmoms:R:1 pbc="T T T"
Si      -1.44098082      -0.81502128      -1.58235098       0.00000000
Si      -0.40192317      -0.89860527       2.17657355       0.00000000
Si       0.01612710       2.39570514      -0.12833862       0.00000000
Si       2.26768203      -0.44046531      -0.74061577       0.00000000
Si       1.66205241       2.27986695       1.97079927       0.00000000
Si      -0.08457768       2.38020729      -2.74343963       0.00000000
Si       1.22199435      -2.78788689       2.02489439       0.00000000
Si      -0.67650741       0.10783980      -3.61201646       0.00000000
Si       0.35075628       0.99755073       3.53637737       0.00000000
Si      -3.43591938       0.38221227      -1.42981372       0.00000000
