10
Lattice="16.28999089631971 0.0 0.0 0.0 16.28999089631971 0.0 0.0 0.0 34.32429715621058" Properties=species:S:1:pos:R:3:initial_magmoms:R:1 pbc="T T T"
Si      -0.01612710      -2.39570514       0.12833862       0.00000000
Si      -1.39554801       2.01491729       0.57970338       0.00000000
Si      -0.10070478      -0.01549785      -2.61510101       0.00000000
Si       1.64592531      -0.11583819       2.09913789       0.00000000
Si      -2.77259058       0.09665722       0.66705876       0.00000000
Si       2.25155493      -2.83617045      -0.61227715       0.00000000
Si       3.44434131      -1.06386732       0.72643983       0.00000000
Si      -1.45710792      -3.21072642      -1.45401236       0.00000000
Si       0.33462918      -1.39815441       3.66471599       0.00000000
Si       2.12053446       0.10275441      -3.43407920       0.00000000
