10
Lattice="16.28999089631971 0.0 0.0 0.0 16.28999089631971 0.0 0.0 0.0 34.32429715621058" Properties=species:S:1:pos:R:3:initial_magmoms:R:1 pbc="T T T"
Si      -1.35676152       1.35720527      -1.35738941       0.00000000
Si       1.35742941      -1.35752390      -1.35718347       0.00000000
Si       1.35705474       1.35802140       1.35776698       0.00000000
Si      -1.35824391      -1.35794744       1.35725212       0.00000000
Si      -2.71173114       0.00111950       2.71433261       0.00000000
Si      -0.00193851      -2.71277045      -2.71354315       0.00000000
Si      -2.71445157      -0.00202759      -2.71484748       0.00000000
Si      -2.71448415      -2.71514879       0.00010297       0.00000000
Si       2.71456560      -0.00156059      -2.71512207       0.00000000
Si       2.71508656      -2.71498589       0.00003432       0.00000000
