10
Lattice="16.28999089631971 0.0 0.0 0.0 16.28999089631971 0.0 0.0 0.0 34.32429715621058" Properties=species:S:1:pos:R:3:initial_magmoms:R:1 pbc="T T T"
Si      -1.35365013       1.35935652       1.35889968       0.00000000
Si      -1.35705474      -1.35802140      -1.35776698       0.00000000
Si       1.35770815       1.35738543      -1.35797293       0.00000000
Si       1.35710361      -1.35968914       1.35859076       0.00000000
Si      -0.00939933       2.71751898       2.70039694       0.00000000
Si      -2.71461447       2.71429356      -0.00041189       0.00000000
Si      -2.71381626      -0.00081613      -2.71515640       0.00000000
Si       0.00068418       2.71448904      -2.71471018       0.00000000
Si       2.71392770       2.71571079      -0.00061784       0.00000000
Si       2.71570494      -0.00028019      -2.71460721       0.00000000
