10
Lattice="16.28999089631971 0.0 0.0 0.0 16.28999089631971 0.0 0.0 0.0 34.32429715621058" Properties=species:S:1:pos:R:3:initial_magmoms:R:1 pbc="T T T"
Si       1.34425080       1.35816246       1.34149726       0.00000000
Si       1.35365013      -1.35935652      -1.35889968       0.00000000
Si      -1.36096434       1.35493704      -1.35931158       0.00000000
Si      -1.36873467      -1.38440076       1.37949427       0.00000000
Si      -0.05499504       2.55917529       2.79036097       0.00000000
Si       2.63290383       0.03429045       2.74618558       0.00000000
Si       2.71257822       2.71267596      -0.00254000       0.00000000
Si       2.71135828      -0.00197109      -2.71687261       0.00000000
Si      -0.00263898       2.71235016      -2.71666667       0.00000000
Si       2.71075374      -2.71904566      -0.00030892       0.00000000
