10
Lattice="16.28999089631971 0.0 0.0 0.0 16.28999089631971 0.0 0.0 0.0 34.32429715621058" Properties=species:S:1:pos:R:3:initial_magmoms:R:1 pbc="T T T"
Si      -0.45059769       1.05621102       2.03220547       0.00000000
Si      -1.79185113      -0.77778234      -1.31400348       0.00000000
Si       0.96381414       1.84342527      -1.26742538       0.00000000
Si       1.93883580      -1.54961883       0.06483863       0.00000000
Si      -0.34992549      -2.10015078      -2.67829208       0.00000000
Si       2.36305998       0.64241244      -2.71628910       0.00000000
Si      -2.58264918       1.92899664       1.73886987       0.00000000
Si       1.26658008       2.87557596       2.04696493       0.00000000
Si       1.04917374      -3.47204150      -1.18676324       0.00000000
Si       2.71736748       2.74651029       0.09003268       0.00000000
