10
Lattice="16.28999089631971 0.0 0.0 0.0 16.28999089631971 0.0 0.0 0.0 34.32429715621058" Properties=species:S:1:pos:R:3:initial_magmoms:R:1 pbc="T T T"
Si      -0.46164231       1.73714768      -1.47268479       0.00000000
Si      -0.04606812      -2.33032590      -0.39212099       0.00000000
Si      -1.23686712       0.55219679       1.94375171       0.00000000
Si       2.35117335       0.32742737      -0.00017162       0.00000000
Si       2.20990987      -2.70462123      -0.77607279       0.00000000
Si       0.39237723       0.07058294       3.56107917       0.00000000
Si      -2.08130814       3.01278500      -0.46190232       0.00000000
Si      -0.60178518      -3.22946874       1.70663933       0.00000000
Si      -1.65485223       2.88202517       1.83834173       0.00000000
Si      -0.78457527       0.86781554      -3.61342375       0.00000000
