10
Lattice="16.28999089631971 0.0 0.0 0.0 16.28999089631971 0.0 0.0 0.0 34.32429715621058" Properties=species:S:1:pos:R:3:initial_magmoms:R:1 pbc="T T T"
Si      -2.08256247       0.42391467      -1.00803652       0.00000000
Si       0.83712681      -2.19851469      -0.23319941       0.00000000
Si      -0.73924020       0.14644710       2.25078272       0.00000000
Si       1.91694204       1.40309028      -0.11539835       0.00000000
Si       0.57933756       3.08961027       1.06707435       0.00000000
Si       3.01934272       0.62677404       1.81424606       0.00000000
Si       1.35294966      -0.03766248       3.32180436       0.00000000
Si      -1.14657165       2.48481144       2.48545807       0.00000000
Si      -1.00665684      -3.55364721      -0.74974604       0.00000000
Si      -3.77716230      -0.77053329       0.10551295       0.00000000
