10
Lattice="16.28999089631971 0.0 0.0 0.0 16.28999089631971 0.0 0.0 0.0 34.32429715621058" Properties=species:S:1:pos:R:3:initial_magmoms:R:1 pbc="T T T"
Si      -0.94907169      -1.61899794       1.37606325       0.00000000
Si       1.60274771       1.06808643       1.39425171       0.00000000
Si      -1.82278584       1.71170433       0.11480801       0.00000000
Si       1.47733263       2.27359530      -2.06062601       0.00000000
Si      -2.42779644       1.20218571      -2.07668979       0.00000000
Si      -2.34391923      -0.23517873       2.71611202       0.00000000
Si       0.37306799       2.49078987       2.74816750       0.00000000
Si      -1.87484868      -1.02167622      -3.05616848       0.00000000
Si       2.30759972       3.06323676       0.14105376       0.00000000
Si       1.86590125       0.27862416      -3.39786705       0.00000000
