10
Lattice="16.28999089631971 0.0 0.0 0.0 16.28999089631971 0.0 0.0 0.0 34.32429715621058" Properties=species:S:1:pos:R:3:initial_magmoms:R:1 pbc="T T T"
Si       1.35664749      -1.35389448      -1.35625671       0.00000000
Si      -1.35772263      -1.35527913       1.35725212       0.00000000
Si       1.35723393       1.35949824       1.35697752       0.00000000
Si      -1.35913986       1.36347300      -1.35989509       0.00000000
Si       2.70561680       0.00123804      -2.69379637       0.00000000
Si       2.71439279      -2.71270854      -0.00058351       0.00000000
Si      -2.71489140      -2.71236645      -0.00058351       0.00000000
Si       0.00040725      -2.71311579       2.71426396       0.00000000
Si       2.71541521       0.00169416       2.71409234       0.00000000
Si      -2.71557558       0.00254124       2.71426396       0.00000000
