10
Lattice="16.28999089631971 0.0 0.0 0.0 16.28999089631971 0.0 0.0 0.0 34.32429715621058" Properties=species:S:1:pos:R:3:initial_magmoms:R:1 pbc="T T T"
Si       0.20859345       1.27931886      -2.05595790       0.00000000
Si      -1.69236810       1.45189512       1.07720002       0.00000000
Si       2.31173086       0.26660214       1.07586137       0.00000000
Si      -1.21046103      -2.32647264       0.65978201       0.00000000
Si      -0.66920949       1.20717045       3.15491954       0.00000000
Si      -0.76216023      -0.36556389      -3.44592109       0.00000000
Si      -2.55676437      -1.42356681      -2.06570601       0.00000000
Si       1.55211120       1.84891500       2.67715938       0.00000000
Si       2.34103494      -1.97928387       2.06622087       0.00000000
Si       0.14519277      -2.59677261       2.72720423       0.00000000
