10
Lattice="16.28999089631971 0.0 0.0 0.0 16.28999089631971 0.0 0.0 0.0 34.32429715621058" Properties=species:S:1:pos:R:3:initial_magmoms:R:1 pbc="T T T"
Si       2.19584217       0.61748874      -0.66098336       0.00000000
Si      -0.55340388       1.71913257       1.58660720       0.00000000
Si      -0.09749565      -2.37915450       0.71044470       0.00000000
Si      -1.35565380       0.27029997      -2.06742222       0.00000000
Si       3.15682674       0.70441218       1.50021289       0.00000000
Si      -0.56084841      -2.32075485      -2.85997069       0.00000000
Si       1.56092409       1.97043840       2.75267287       0.00000000
Si      -0.14519277       2.59677261      -2.72720423       0.00000000
Si       0.68668866      -3.56027724      -1.21411972       0.00000000
Si      -2.22648462      -2.56147218       1.81936039       0.00000000
