10
Lattice="16.28999089631971 0.0 0.0 0.0 16.28999089631971 0.0 0.0 0.0 34.32429715621058" Properties=species:S:1:pos:R:3:initial_magmoms:R:1 pbc="T T T"
Si       0.17847324      -0.47679201      -2.29183460       0.00000000
Si      -0.42792201      -2.03838399       1.17203811       0.00000000
Si      -2.22865119       0.86195277       0.35199586       0.00000000
Si       1.59571694       1.40154273       1.29584591       0.00000000
Si      -1.76552649      -0.35186400       2.35451080       0.00000000
Si       0.95914121       1.63041723      -2.99973930       0.00000000
Si       1.00378233      -3.59490978      -0.71418605       0.00000000
Si      -2.29845384       3.18337551       0.40598801       0.00000000
Si       1.67202745       0.68057991       3.56471755       0.00000000
Si      -1.93585473      -0.72809784      -3.45790028       0.00000000
