10
Lattice="16.28999089631971 0.0 0.0 0.0 16.28999089631971 0.0 0.0 0.0 34.32429715621058" Properties=species:S:1:pos:R:3:initial_magmoms:R:1 pbc="T T T"
Si       2.25397141       0.06462243      -0.55426906       0.00000000
Si      -1.18358253      -0.96782148      -1.76447581       0.00000000
Si      -0.77724477       2.22153246      -0.11611916       0.00000000
Si      -0.57542796      -0.92945853       2.13902275       0.00000000
Si      -2.90949174      -1.57262031      -0.34609208       0.00000000
Si      -2.87627643      -0.65099727       1.87829524       0.00000000
Si       0.47747619       3.25187496       1.56783180       0.00000000
Si       2.17766090       0.78558525      -2.82314069       0.00000000
Si       3.05977418      -2.11680405      -0.32666452       0.00000000
Si       0.88734888       0.06542064       3.63999077       0.00000000
