10
Lattice="16.28999089631971 0.0 0.0 0.0 16.28999089631971 0.0 0.0 0.0 34.32429715621058" Properties=species:S:1:pos:R:3:initial_magmoms:R:1 pbc="T T T"
Si      -1.79484849      -1.25312454       0.76646198       0.00000000
Si       2.30084847      -0.27846126       0.26072751       0.00000000
Si      -0.03321531      -0.92162304      -2.22438732       0.00000000
Si      -0.82261242       2.41815276       0.47580367       0.00000000
Si       2.87627643       0.65099727      -1.87829524       0.00000000
Si      -3.09062025      -1.17125100      -1.35560455       0.00000000
Si      -0.20694816       3.19362192      -1.65309340       0.00000000
Si      -1.98809676      -0.10502163      -3.16401548       0.00000000
Si      -1.86830010       0.07073118       3.24131384       0.00000000
Si      -1.05616215      -3.62794590       0.68858011       0.00000000
