10
Lattice="16.28999089631971 0.0 0.0 0.0 16.28999089631971 0.0 0.0 0.0 34.32429715621058" Properties=species:S:1:pos:R:3:initial_magmoms:R:1 pbc="T T T"
Si       1.46277684       0.99487917       1.50096803       0.00000000
Si      -2.30084847       0.27846126      -0.26072751       0.00000000
Si       0.52430994      -2.22596334       0.46989989       0.00000000
Si       0.57542796       0.92945853      -2.13902275       0.00000000
Si      -2.33406378      -0.64316178      -2.48511483       0.00000000
Si       0.16545753      -3.16563570      -1.64876854       0.00000000
Si       0.92395251       3.30872706       1.65388286       0.00000000
Si      -0.20181681       3.15099099      -2.25514191       0.00000000
Si      -0.60815457      -0.03836295      -3.90349855       0.00000000
Si       1.89044703      -0.26498943       3.46463887       0.00000000
