10
Lattice="16.28999089631971 0.0 0.0 0.0 16.28999089631971 0.0 0.0 0.0 34.32429715621058" Properties=species:S:1:pos:R:3:initial_magmoms:R:1 pbc="T T T"
Si      -1.35710361      -1.35614250      -1.35725212       0.00000000
Si      -1.35837423       1.35586557       1.35862509       0.00000000
Si       1.35799924       1.35811359      -1.35694320       0.00000000
Si       1.36052451      -1.35433431       1.35879671       0.00000000
Si      -2.71438641       0.00068418      -2.71436694       0.00000000
Si       0.00050499      -2.71454931      -2.71426396       0.00000000
Si       2.71520647      -2.71406061       0.00013730       0.00000000
Si      -2.71560816      -2.71397916       0.00068649       0.00000000
Si       0.00034209       2.71557558      -2.71416099       0.00000000
Si       2.71558114       2.71441899      -0.00020595       0.00000000
