10
Lattice="16.28999089631971 0.0 0.0 0.0 16.28999089631971 0.0 0.0 0.0 34.32429715621058" Properties=species:S:1:pos:R:3:initial_magmoms:R:1 pbc="T T T"
Si       1.34081361       1.35310315      -1.38028373       0.00000000
Si      -1.37463165      -1.36246302      -1.38103887       0.00000000
Si      -1.33957557       1.31585733       1.49104830       0.00000000
Si       1.31347899      -1.44314739       1.43849777       0.00000000
Si      -2.12954283      -0.48146724       2.92123959       0.00000000
Si      -0.49792014      -2.42966979       2.80158502       0.00000000
Si       2.68980058       2.71960965      -0.00514865       0.00000000
Si      -2.73867480       2.68774804      -0.00048054       0.00000000
Si       2.68874662      -2.74115088      -0.00635000       0.00000000
Si       2.69932372      -0.00390960      -2.73986990       0.00000000
