10
Lattice="16.28999089631971 0.0 0.0 0.0 16.28999089631971 0.0 0.0 0.0 34.32429715621058" Properties=species:S:1:pos:R:3:initial_magmoms:R:1 pbc="T T T"
Si       1.25472096       1.03034250       1.68395096       0.00000000
Si      -2.30597982       0.32109219       0.34132100       0.00000000
Si       0.77724477      -2.22153246       0.11611916       0.00000000
Si       0.40980753       1.29689577      -1.93702414       0.00000000
Si      -0.05805756       2.93142852       2.04250277       0.00000000
Si      -0.40633776      -3.18935394      -1.64835664       0.00000000
Si      -0.93926511       0.34588557      -3.59687943       0.00000000
Si       2.63233761       0.92732454      -2.48302104       0.00000000
Si       3.03121618      -2.15691003      -0.43814990       0.00000000
Si      -2.92164408      -0.45437697       2.47021807       0.00000000
