10
Lattice="16.28999089631971 0.0 0.0 0.0 16.28999089631971 0.0 0.0 0.0 34.32429715621058" Properties=species:S:1:pos:R:3:initial_magmoms:R:1 pbc="T T T"
Si       1.20596010       1.72061496       1.05170804       0.00000000
Si      -1.71534582      -1.17964035       1.09881816       0.00000000
Si      -0.42767019       1.25986860      -1.96367084       0.00000000
Si       1.71295703      -1.78166988      -0.13942125       0.00000000
Si       1.88975240       1.10253978      -2.45097316       0.00000000
Si      -0.22157469      -2.35411677       2.46769249       0.00000000
Si       2.50812080       0.35916192       2.44540914       0.00000000
Si       0.88268994      -2.57131134      -2.34110102       0.00000000
Si      -2.94708159       0.36057915       2.42008466       0.00000000
Si      -1.36613709      -1.96097391      -2.99473898       0.00000000
