10
Lattice="16.28999089631971 0.0 0.0 0.0 16.28999089631971 0.0 0.0 0.0 34.32429715621058" Properties=species:S:1:pos:R:3:initial_magmoms:R:1 pbc="T T T"
Si      -0.75961966       1.58231286       1.60129801       0.00000000
Si       0.02930408      -2.24588601       0.99035950       0.00000000
Si       2.39361025       0.22242366      -0.67237903       0.00000000
Si      -2.31173086      -0.26660214      -1.07586137       0.00000000
Si      -2.98094035       0.94056831       2.07905816       0.00000000
Si       0.17505397       1.21427289       3.69611103       0.00000000
Si      -2.10313741       1.01271672      -3.13181927       0.00000000
Si       1.23042605      -3.66854058      -0.56830771       0.00000000
Si       0.99028865      -2.15896257       3.15155575       0.00000000
Si      -2.16653809      -2.86337475       1.65134286       0.00000000
