10
Lattice="16.28999089631971 0.0 0.0 0.0 16.28999089631971 0.0 0.0 0.0 34.32429715621058" Properties=species:S:1:pos:R:3:initial_magmoms:R:1 pbc="T T T"
Si       0.17700714       2.08557612       1.16208405       0.00000000
Si       1.60733430      -1.26884439      -1.29574294       0.00000000
Si       0.35870580      -1.90535985       1.46660939       0.00000000
Si      -2.35562848      -0.56876535      -0.34931857       0.00000000
Si      -0.21958920      -1.03156425      -2.95024364       0.00000000
Si      -2.11978512       0.45282942      -2.79303827       0.00000000
Si      -1.19244429       3.32219889      -0.45338989       0.00000000
Si       0.86872941      -3.50358804      -0.21157509       0.00000000
Si      -3.55675045       0.85388922       1.20934864       0.00000000
Si      -2.73700182      -2.90146077       0.50178718       0.00000000
