10
Lattice="16.28999089631971 0.0 0.0 0.0 16.28999089631971 0.0 0.0 0.0 34.32429715621058" Properties=species:S:1:pos:R:3:initial_magmoms:R:1 pbc="T T T"
Si      -2.31742259       0.15732882       0.48730232       0.00000000
Si       0.29931246       1.21199229      -2.02396764       0.00000000
Si       0.44857773      -2.24347509      -1.12017406       0.00000000
Si       1.11632112       1.26975663       1.98085630       0.00000000
Si      -1.88975240      -1.10253978       2.45097316       0.00000000
Si      -0.68379230       0.61807518       3.50268119       0.00000000
Si      -0.17679537      -2.88420966       2.31155190       0.00000000
Si       3.00825801      -0.39486960       2.12076221       0.00000000
Si      -1.00706246      -3.67385112       0.10987214       0.00000000
Si      -0.95080006       0.15653061      -3.70695752       0.00000000
