10
Lattice="16.28999089631971 0.0 0.0 0.0 16.28999089631971 0.0 0.0 0.0 34.32429715621058" Properties=species:S:1:pos:R:3:initial_magmoms:R:1 pbc="T T T"
Si       1.35017279       1.35089712       1.37565682       0.00000000
Si      -1.36245660      -1.36909305       1.36910087       0.00000000
Si      -1.36553541       1.41367878      -1.32739339       0.00000000
Si       1.41057773      -1.36604682      -1.37687190       0.00000000
Si       2.69459137       2.69723304      -0.01229840       0.00000000
Si      -0.00836664       2.70356985       2.73205082       0.00000000
Si       2.70754192      -0.00982287       2.73122704       0.00000000
Si       2.71273843      -2.72749986       0.01682921       0.00000000
Si      -0.00636053      -2.72621295       2.73198218       0.00000000
Si      -2.72487075      -0.00764001       2.73362974       0.00000000
