10
Lattice="16.28999089631971 0.0 0.0 0.0 16.28999089631971 0.0 0.0 0.0 34.24959146834617" Properties=species:S:1:pos:R:3:initial_magmoms:R:1 pbc="T T T"
Si      -1.26320603       1.39758426      -1.40855291       0.00000000
Si      -1.35951251      -1.34575274       1.36946726       0.00000000
Si       1.35509611       1.36576989       1.36645329       0.00000000
Si       1.37753722      -1.41352240      -1.39938087       0.00000000
Si       0.69334907       2.10341367      -2.77358625       0.00000000
Si      -2.34546476      -0.24130377      -2.80917160       0.00000000
Si       2.37934289       0.21774843      -2.85359334       0.00000000
Si      -2.71656725      -2.69713045      -0.00949742       0.00000000
Si      -0.00404027      -2.70417467       2.72629983       0.00000000
Si       2.72780228      -2.70716084       0.00778494       0.00000000
