10
Lattice="16.28999089631971 0.0 0.0 0.0 16.28999089631971 0.0 0.0 0.0 34.24959146834617" Properties=species:S:1:pos:R:3:initial_magmoms:R:1 pbc="T T T"
Si       1.77021801       1.55131299      -0.14765007       0.00000000
Si       1.35967743      -1.90803141      -0.52747825       0.00000000
Si      -2.07067796      -0.04357575      -1.25730321       0.00000000
Si      -0.73081501       0.22214673       2.42990712       0.00000000
Si      -0.11243358      -3.19463190       0.66803865       0.00000000
Si       0.76260006       3.49154973      -0.98868351       0.00000000
Si       2.72888451       1.43177697       2.09453494       0.00000000
Si       2.46070224      -1.03340502       2.66585269       0.00000000
Si      -1.53947016      -0.34560864      -3.54031375       0.00000000
Si       0.06046848      -2.50997949       3.04506438       0.00000000
