10
Lattice="16.28999089631971 0.0 0.0 0.0 16.28999089631971 0.0 0.0 0.0 34.24959146834617" Properties=species:S:1:pos:R:3:initial_magmoms:R:1 pbc="T T T"
Si       0.73081501      -0.22214673      -2.42990712       0.00000000
Si      -2.54470392       0.38949390       0.00455520       0.00000000
Si       1.17090565       1.17278226       2.09710366       0.00000000
Si      -0.94750133      -1.86841413       1.94380240       0.00000000
Si       0.79128349      -2.73212622       0.61515726       0.00000000
Si       3.19151725      -1.25555175       0.23594557       0.00000000
Si       0.25134981      -0.62514504       3.51678225       0.00000000
Si       3.45969952       1.20963024      -0.33537219       0.00000000
Si      -0.61794812       2.95578792       2.33838775       0.00000000
Si       2.50103302       1.32916626      -2.57755720       0.00000000
