10
Lattice="16.28999089631971 0.0 0.0 0.0 16.28999089631971 0.0 0.0 0.0 34.24959146834617" Properties=species:S:1:pos:R:3:initial_magmoms:R:1 pbc="T T T"
Si       1.35643572      -1.35226711      -1.36060003       0.00000000
Si      -1.35684297      -1.35112355       1.36840894       0.00000000
Si      -1.35909099       1.36109466      -1.36025753       0.00000000
Si       1.37420811       1.35980775       1.38043056       0.00000000
Si       2.70985779      -2.70935422       0.00325371       0.00000000
Si      -2.71393029      -2.71377935      -0.00339071       0.00000000
Si      -0.00141723      -2.71107793      -2.71712436       0.00000000
Si       2.71352304       0.00436572      -2.71705586       0.00000000
Si       2.71415835       2.71753038      -0.00434970       0.00000000
Si      -2.71583622       0.00351864      -2.71726136       0.00000000
