10
Lattice="16.28999089631971 0.0 0.0 0.0 16.28999089631971 0.0 0.0 0.0 34.24959146834617" Properties=species:S:1:pos:R:3:initial_magmoms:R:1 pbc="T T T"
Si       1.06148898       1.56118473      -1.51818249       0.00000000
Si      -1.57525929      -1.11676095      -1.47478823       0.00000000
Si      -1.05062355       1.26571671       2.03946156       0.00000000
Si       1.89408717      -1.96398756       0.00613068       0.00000000
Si      -2.41062678      -2.85163455      -0.03250288       0.00000000
Si       2.43475227       0.18632502      -2.90720970       0.00000000
Si       2.06640279       3.19663557      -0.06788273       0.00000000
Si      -0.29629881      -2.52460628      -2.91923131       0.00000000
Si       0.01034415      -1.68868656       3.51609927       0.00000000
Si      -2.32463187      -2.05970760       2.41490579       0.00000000
