10
Lattice="16.28999089631971 0.0 0.0 0.0 16.28999089631971 0.0 0.0 0.0 34.24959146834617" Properties=species:S:1:pos:R:3:initial_magmoms:R:1 pbc="T T T"
Si      -1.74837312      -0.93945637       1.26374213       0.00000000
Si      -1.26395739       1.29467707      -1.55469257       0.00000000
Si       0.92642859       1.85529579       1.37066942       0.00000000
Si       1.44052470      -1.41193153      -1.53541004       0.00000000
Si      -0.33133860      -1.45879786       3.18514529       0.00000000
Si      -2.54291787       2.70252240      -0.11024950       0.00000000
Si      -3.37828536       0.96764881       1.33203586       0.00000000
Si      -2.55938706      -2.82023461       0.04171603       0.00000000
Si       2.81479797       2.72304780       0.10257758       0.00000000
Si      -2.62104471      -0.06797872      -2.92649223       0.00000000
