10
Lattice="16.28999089631971 0.0 0.0 0.0 16.28999089631971 0.0 0.0 0.0 34.24959146834617" Properties=species:S:1:pos:R:3:initial_magmoms:R:1 pbc="T T T"
Si      -1.25084394      -1.97304480      -0.26286576       0.00000000
Si      -0.40580019       0.91667088       2.14618335       0.00000000
Si       2.09895021      -1.19843901      -0.06647849       0.00000000
Si      -0.34435431       1.86812091      -1.52421042       0.00000000
Si      -1.33635015      -2.10794229      -2.67934704       0.00000000
Si       3.68201241       0.44022096      -0.63108333       0.00000000
Si      -0.43396560      -3.62203263       1.31789077       0.00000000
Si      -2.70539433       1.61898165       2.26605699       0.00000000
Si       1.06947108       1.64799414      -3.37944333       0.00000000
Si      -0.53131464      -0.81568917       3.80571398       0.00000000
