10
Lattice="16.28999089631971 0.0 0.0 0.0 16.28999089631971 0.0 0.0 0.0 34.24959146834617" Properties=species:S:1:pos:R:3:initial_magmoms:R:1 pbc="T T T"
Si       2.13814395      -0.42140601      -0.83411502       0.00000000
Si      -1.28163204      -1.80460620      -0.80058465       0.00000000
Si      -1.27685907       1.83402594      -0.74201781       0.00000000
Si       0.08550621       0.13489749       2.41648128       0.00000000
Si      -0.13240512      -3.21103593       0.77136973       0.00000000
Si      -2.90235672       1.30686525       0.95433115       0.00000000
Si       2.56740174       1.65499884      -1.75094284       0.00000000
Si       3.31594353      -1.00567944       1.11749629       0.00000000
Si       1.33635015       2.10794229       2.67934704       0.00000000
Si      -2.15575344       0.28722528       2.94625425       0.00000000
