10
Lattice="16.28999089631971 0.0 0.0 0.0 16.28999089631971 0.0 0.0 0.0 34.24959146834617" Properties=species:S:1:pos:R:3:initial_magmoms:R:1 pbc="T T T"
Si       0.98191233      -1.13665104      -1.82820996       0.00000000
Si       1.23406524       0.95244372       1.79598108       0.00000000
Si      -1.82065185      -1.18278432       1.06379291       0.00000000
Si      -0.81687834       1.64898783      -1.58075653       0.00000000
Si      -3.43386684      -0.51310242      -0.52374505       0.00000000
Si       3.27898152       1.51529580       0.72184479       0.00000000
Si      -3.05813799       1.80131562      -1.05098355       0.00000000
Si       1.17872811      -0.81568917       3.41530267       0.00000000
Si      -0.09734904       2.80634346       2.48782322       0.00000000
Si       2.53291581       2.42359362      -1.38436926       0.00000000
