10
Lattice="16.28999089631971 0.0 0.0 0.0 16.28999089631971 0.0 0.0 0.0 34.24959146834617" Properties=species:S:1:pos:R:3:initial_magmoms:R:1 pbc="T T T"
Si       2.04491628       0.56285208      -1.07413629       0.00000000
Si      -1.23406524      -0.95244372      -1.79598108       0.00000000
Si      -1.33141428       1.85389974       0.69184213       0.00000000
Si      -0.05533713      -1.76813289       1.61932159       0.00000000
Si       3.35593548      -1.44132291      -0.71643335       0.00000000
Si       1.29885057       1.47114990      -3.18035034       0.00000000
Si      -3.05471709      -2.13522804      -0.73218818       0.00000000
Si       1.83723507      -1.45834596       3.03091929       0.00000000
Si      -3.57967863       1.05026517       0.95693412       0.00000000
Si      -1.20589983       3.58625979      -0.96768850       0.00000000
