10
Lattice="16.28999089631971 0.0 0.0 0.0 16.28999089631971 0.0 0.0 0.0 34.24959146834617" Properties=species:S:1:pos:R:3:initial_magmoms:R:1 pbc="T T T"
Si       1.35865116      -1.35731538       1.36025753       0.00000000
Si      -1.35896067       1.35814617       1.36080553       0.00000000
Si      -1.35229806      -1.37275830      -1.36700813       0.00000000
Si       1.36945143       1.36945143      -1.39955211       0.00000000
Si       0.19758141      -2.49108309      -2.82792870       0.00000000
Si      -2.68099191       0.02915910      -2.69613277       0.00000000
Si       2.71300176      -2.71453302       0.00465795       0.00000000
Si       2.71298547       2.71546155       0.00017125       0.00000000
Si      -2.71469592       2.71655298       0.00301397       0.00000000
Si       2.71415835       0.00017919       2.71722711       0.00000000
