10
Lattice="16.28999089631971 0.0 0.0 0.0 16.28999089631971 0.0 0.0 0.0 34.24959146834617" Properties=species:S:1:pos:R:3:initial_magmoms:R:1 pbc="T T T"
Si      -0.11059281       1.97083913      -1.21031274       0.00000000
Si      -2.27947436      -0.30193256       0.40219318       0.00000000
Si       1.19281896       0.60318449       1.92013592       0.00000000
Si       0.95915520      -1.90986959      -0.98060060       0.00000000
Si       2.99413458      -1.08201179      -1.63202820       0.00000000
Si      -2.28848436      -0.69217580       2.67051064       0.00000000
Si      -0.11350872      -0.43922468       3.56192525       0.00000000
Si      -0.46320615       3.65569754       0.40983084       0.00000000
Si      -2.83347350      -2.41862258      -0.42404443       0.00000000
Si       1.15000884       2.98601564       1.99736879       0.00000000
