10
Lattice="16.28999089631971 0.0 0.0 0.0 16.28999089631971 0.0 0.0 0.0 34.24959146834617" Properties=species:S:1:pos:R:3:initial_magmoms:R:1 pbc="T T T"
Si       1.35685926       1.35832536      -1.35659283       0.00000000
Si      -1.35832536      -1.35734796      -1.35686682       0.00000000
Si       1.35397593      -1.35832536       1.36049728       0.00000000
Si      -1.35685926       1.36031274       1.36214126       0.00000000
Si       0.01884753       2.69850366       2.72397428       0.00000000
Si       2.71391400       0.00008145      -2.71465839       0.00000000
Si       2.71430496      -2.71443528       0.00078774       0.00000000
Si      -0.00035838      -2.71507059      -2.71407614       0.00000000
Si      -0.00074934       2.71531494      -2.71448714       0.00000000
Si      -2.71596654       0.00024435      -2.71424739       0.00000000
