10
Lattice="16.28999089631971 0.0 0.0 0.0 16.28999089631971 0.0 0.0 0.0 34.24959146834617" Properties=species:S:1:pos:R:3:initial_magmoms:R:1 pbc="T T T"
Si      -1.35589815       1.35278199       1.35700382       0.00000000
Si       1.35661491       1.35548341      -1.35672983       0.00000000
Si      -1.35804843      -1.35881406      -1.35649008       0.00000000
Si       1.35553977      -1.35720135       1.36313450       0.00000000
Si      -2.69606016      -0.01863576       2.72407703       0.00000000
Si      -0.00084708       2.71323049      -2.71421314       0.00000000
Si      -2.71562445       2.71225472       0.00058224       0.00000000
Si       2.71446786       2.71429423      -0.00020550       0.00000000
Si       2.71425609      -0.00167787      -2.71493238       0.00000000
Si      -2.71565703      -0.00182448      -2.71438439       0.00000000
