10
Lattice="16.28999089631971 0.0 0.0 0.0 16.28999089631971 0.0 0.0 0.0 34.24959146834617" Properties=species:S:1:pos:R:3:initial_magmoms:R:1 pbc="T T T"
Si      -1.34237745      -1.35937348      -1.35719562       0.00000000
Si       1.35609363      -1.35635534       1.36142202       0.00000000
Si      -1.35687555       1.35873424       1.36149052       0.00000000
Si       1.33863075       1.37492650      -1.37701929       0.00000000
Si       2.71078632       2.71626139      -0.00212348       0.00000000
Si      -2.71508362       2.71355725       0.00147273       0.00000000
Si      -2.71550716      -2.71362634      -0.00089049       0.00000000
Si       2.71489140      -2.71523905      -0.00448670       0.00000000
Si      -0.00027693      -2.71413133       2.71791210       0.00000000
Si       0.00026064       2.71534915       2.71722711       0.00000000
