10
Lattice="16.28999089631971 0.0 0.0 0.0 16.28999089631971 0.0 0.0 0.0 34.24959146834617" Properties=species:S:1:pos:R:3:initial_magmoms:R:1 pbc="T T T"
Si       1.19957931      -0.12676878      -2.02538497       0.00000000
Si      -0.50573934      -1.91725155       1.28463439       0.00000000
Si      -2.12664321       0.88707195      -0.55114473       0.00000000
Si       0.55698768       1.93579350       1.43409970       0.00000000
Si       0.57360348       3.46262588      -0.32989225       0.00000000
Si       3.33330867       0.54030672      -1.13150439       0.00000000
Si      -1.41820740       1.99911599       2.68969042       0.00000000
Si       0.26163369      -1.33579629       3.42379657       0.00000000
Si       3.48682563      -0.60906681       1.05571000       0.00000000
Si      -3.23271792       0.93898818       1.56089175       0.00000000
