10
Lattice="16.28999089631971 0.0 0.0 0.0 16.28999089631971 0.0 0.0 0.0 34.24959146834617" Properties=species:S:1:pos:R:3:initial_magmoms:R:1 pbc="T T T"
Si      -2.03497938      -0.82785780       0.65142759       0.00000000
Si       1.12539465      -1.80457362      -0.94833747       0.00000000
Si      -0.55444644       1.53033866      -1.68244362       0.00000000
Si       1.39875714       0.39614022       1.83824510       0.00000000
Si      -2.77449651      -1.48908519      -1.49431051       0.00000000
Si       0.45528921      -3.43507230       0.72431077       0.00000000
Si       2.50382187       2.30255959       1.04728459       0.00000000
Si      -2.99413458       1.08201179       1.63202820       0.00000000
Si       1.42074864       1.46701617      -2.93803435       0.00000000
Si      -1.38347712      -2.54093049       2.10597431       0.00000000
