10
Lattice="16.28999089631971 0.0 0.0 0.0 16.28999089631971 0.0 0.0 0.0 34.24959146834617" Properties=species:S:1:pos:R:3:initial_magmoms:R:1 pbc="T T T"
Si       1.35037584       1.35840681       1.39206515       0.00000000
Si      -1.36793646      -1.35429521       1.39398313       0.00000000
Si      -1.19824353       1.51876557      -1.48867302       0.00000000
Si       1.39580865      -1.45473772      -1.57789669       0.00000000
Si      -2.69703756      -2.70460331       0.00955222       0.00000000
Si       2.70726768      -2.70258760       0.01902566       0.00000000
Si       2.70260874       2.73028545       0.01668984       0.00000000
Si      -2.70606222       2.73730644       0.01492941       0.00000000
Si      -0.00803097      -2.70787373       2.75454891       0.00000000
Si       2.70800073       0.00532683       2.75495990       0.00000000
