10
Lattice="16.28999089631971 0.0 0.0 0.0 16.28999089631971 0.0 0.0 0.0 34.24959146834617" Properties=species:S:1:pos:R:3:initial_magmoms:R:1 pbc="T T T"
Si      -1.35643572       1.35226711       1.36060003       0.00000000
Si       1.35708732       1.35663283      -1.35645583       0.00000000
Si      -1.35785295      -1.35881082      -1.35652433       0.00000000
Si       1.35342207      -1.35708711       1.36385374       0.00000000
Si      -0.00055386       2.71430659      -2.71404189       0.00000000
Si       2.71428867       2.71419256       0.00006850       0.00000000
Si      -2.71446786      -2.71429423       0.00020550       0.00000000
Si      -2.71552671       2.71336177       0.00034250       0.00000000
Si      -2.71531494      -0.00106374      -2.71400764       0.00000000
Si       2.71521720      -0.00151660      -2.71445289       0.00000000
