10
Lattice="16.28999089631971 0.0 0.0 0.0 16.28999089631971 0.0 0.0 0.0 34.24959146834617" Properties=species:S:1:pos:R:3:initial_magmoms:R:1 pbc="T T T"
Si      -1.35342207       1.35708711      -1.36385374       0.00000000
Si       1.36156707      -1.35945514      -1.36303175       0.00000000
Si      -1.36221867      -1.34837794       1.38443776       0.00000000
Si       1.35092970       1.36772774       1.38142379       0.00000000
Si      -2.70985779       2.70935422      -0.00325371       0.00000000
Si      -2.71235016      -2.71440847      -0.00051374       0.00000000
Si      -2.71127502      -0.00172371      -2.72037807       0.00000000
Si       0.00366525       2.71371994      -2.72030957       0.00000000
Si       2.71578735       2.71906306      -0.00369896       0.00000000
Si       2.71935486      -2.71662391      -0.00229472       0.00000000
