10
Lattice="16.28999089631971 0.0 0.0 0.0 16.28999089631971 0.0 0.0 0.0 34.24959146834617" Properties=species:S:1:pos:R:3:initial_magmoms:R:1 pbc="T T T"
Si      -0.91533510       2.13115554      -0.00780891       0.00000000
Si      -1.58166126      -1.16167737      -1.29124457       0.00000000
Si       2.08684674       0.18355572      -1.08263019       0.00000000
Si      -0.04751793      -0.51162003       2.41881025       0.00000000
Si       2.99318976       0.74490912       1.20178459       0.00000000
Si       2.76226272      -2.06785586      -1.20914825       0.00000000
Si      -0.89738352      -3.41134496      -0.98563529       0.00000000
Si       0.05401764       3.16620585       1.85602065       0.00000000
Si      -3.65708871      -0.48902580      -0.18402316       0.00000000
Si      -3.27929103       1.78957053       0.21796452       0.00000000
