10
Lattice="16.28999089631971 0.0 0.0 0.0 16.28999089631971 0.0 0.0 0.0 34.24959146834617" Properties=species:S:1:pos:R:3:initial_magmoms:R:1 pbc="T T T"
Si      -0.07723089       2.03734143      -1.29470378       0.00000000
Si      -1.90910655      -1.31016235      -0.79942016       0.00000000
Si      -0.75603519       1.12954860       2.09772015       0.00000000
Si       1.89180657      -0.93237933      -1.63065821       0.00000000
Si      -1.75145193      -0.66716672      -3.16004032       0.00000000
Si      -1.96980309       1.72755450      -2.70630148       0.00000000
Si       0.50930685      -1.22501940      -3.65248122       0.00000000
Si       3.46208112       0.89257797      -1.69634896       0.00000000
Si      -0.01858689       3.98275839       0.22823941       0.00000000
Si       1.83767490       2.33381943      -2.67033939       0.00000000
