10
Lattice="16.28999089631971 0.0 0.0 0.0 16.28999089631971 0.0 0.0 0.0 34.24959146834617" Properties=species:S:1:pos:R:3:initial_magmoms:R:1 pbc="T T T"
Si       1.06183107      -1.89878099       0.93597336       0.00000000
Si       1.57027455       1.82495730      -0.06569075       0.00000000
Si      -1.38249972      -0.29264008      -2.02182301       0.00000000
Si      -1.89180657       0.93237933       1.63065821       0.00000000
Si      -0.05413167       3.26619876      -1.03968118       0.00000000
Si      -1.96903746       2.96972076       0.33595443       0.00000000
Si       3.26285442       1.28851131      -1.63130895       0.00000000
Si      -1.47217617      -2.62345793      -2.48340502       0.00000000
Si      -3.80091312      -0.37778302       0.83123805       0.00000000
Si      -3.64325850       0.26521260      -1.52938211       0.00000000
