10
Lattice="16.28999089631971 0.0 0.0 0.0 16.28999089631971 0.0 0.0 0.0 34.24959146834617" Properties=species:S:1:pos:R:3:initial_magmoms:R:1 pbc="T T T"
Si      -1.13549445       1.95874218      -0.57183150       0.00000000
Si      -0.96935274      -1.03505031      -1.86382956       0.00000000
Si      -0.53318799      -1.54300509       1.70480862       0.00000000
Si       2.28863097      -0.14032206      -0.56844079       0.00000000
Si       1.15554744      -0.77594157       3.18579603       0.00000000
Si       0.45768384       0.33583464      -3.50452291       0.00000000
Si      -0.05401764      -3.16620585      -1.85602065       0.00000000
Si      -0.10153557      -3.67782588       0.56278960       0.00000000
Si      -2.75838570      -0.88985754       2.34784506       0.00000000
Si      -1.56380742       1.50223122      -3.04927708       0.00000000
