10
Lattice="16.28999089631971 0.0 0.0 0.0 16.28999089631971 0.0 0.0 0.0 34.24959146834617" Properties=species:S:1:pos:R:3:initial_magmoms:R:1 pbc="T T T"
Si       0.85734270       2.19136338      -0.12960053       0.00000000
Si      -1.91490579      -0.29647800       1.37563561       0.00000000
Si       1.62440622      -1.44124146       0.97399043       0.00000000
Si      -0.39620538      -0.27945495      -2.37171704       0.00000000
Si       0.05413167      -3.26619876       1.03968118       0.00000000
Si       2.46873321       1.78637769      -1.83492289       0.00000000
Si      -1.70722458       1.72472004      -2.72941997       0.00000000
Si       1.73881089       0.05103657      -3.28237993       0.00000000
Si      -1.85626179       1.64893896       2.89857880       0.00000000
Si      -3.80747799      -0.60626493      -0.03596209       0.00000000
