10
Lattice="16.28999089631971 0.0 0.0 0.0 16.28999089631971 0.0 0.0 0.0 34.24959146834617" Properties=species:S:1:pos:R:3:initial_magmoms:R:1 pbc="T T T"
Si      -1.35606105      -1.35778779       1.35676407       0.00000000
Si       1.35733167      -1.35752715      -1.35714082       0.00000000
Si       1.35560493       1.35865116       1.35775731       0.00000000
Si      -1.35767376       1.35729909      -1.35765456       0.00000000
Si      -0.00013032      -2.71215468      -2.71462414       0.00000000
Si      -2.71318095      -0.00019548      -2.71462414       0.00000000
Si      -0.00024435       2.71420722       2.71366515       0.00000000
Si       0.00037467      -2.71639008       2.71291166       0.00000000
Si       2.71477737      -2.71492398       0.00003425       0.00000000
Si      -2.71469592      -2.71521720      -0.00010275       0.00000000
