10
Lattice="16.28999089631971 0.0 0.0 0.0 16.28999089631971 0.0 0.0 0.0 34.24959146834617" Properties=species:S:1:pos:R:3:initial_magmoms:R:1 pbc="T T T"
Si       0.64040877      -0.66829725      -2.13834019       0.00000000
Si       0.47656395      -2.02197996       1.06851935       0.00000000
Si       1.47698172       1.61782899       0.81387350       0.00000000
Si      -2.18266452       0.27433989       1.03738646       0.00000000
Si       0.32099445      -1.27132047       3.37283315       0.00000000
Si       1.53792261       0.75575826       3.25415825       0.00000000
Si       2.79977859      -2.45768859       0.37825270       0.00000000
Si      -1.39137777      -3.45444111       0.53460217       0.00000000
Si      -1.17446013      -1.72191816      -3.18946074       0.00000000
Si       1.64550177       1.06731447      -3.29029159       0.00000000
