10
Lattice="16.28999089631971 0.0 0.0 0.0 16.28999089631971 0.0 0.0 0.0 34.24959146834617" Properties=species:S:1:pos:R:3:initial_magmoms:R:1 pbc="T T T"
Si      -1.60492338       1.68435342      -0.46391098       0.00000000
Si       0.54100719       0.43994403       2.27098893       0.00000000
Si      -0.69962292      -2.30296617      -0.17409077       0.00000000
Si       1.70843004       0.11031588      -1.74193520       0.00000000
Si       2.55383217      -0.78143130       2.22458071       0.00000000
Si       0.28751850       0.58225347      -3.52363419       0.00000000
Si      -2.54839131      -2.14685910      -1.57784531       0.00000000
Si      -2.75819022       1.87738992       1.59363438       0.00000000
Si       1.24846560      -3.48382827      -0.71156991       0.00000000
Si      -1.87828587      -0.51636042      -3.25049354       0.00000000
