10
Lattice="16.28999089631971 0.0 0.0 0.0 16.28999089631971 0.0 0.0 0.0 34.24959146834617" Properties=species:S:1:pos:R:3:initial_magmoms:R:1 pbc="T T T"
Si      -2.01282498       1.22137533       0.04640822       0.00000000
Si       0.31338702      -0.30641490       2.33250123       0.00000000
Si       1.65374451       1.38241827      -1.02604983       0.00000000
Si      -0.22273317      -2.22035958      -0.88593468       0.00000000
Si      -2.55383217       0.78143130      -2.22458071       0.00000000
Si      -1.72287927      -1.22943888       2.94389103       0.00000000
Si      -3.23320662       0.12974985       1.82183954       0.00000000
Si       3.54747330       1.20133863       0.48887894       0.00000000
Si       1.92020004      -3.17275443      -1.03855094       0.00000000
Si       2.01331368      -1.90610919       2.75709365       0.00000000
