10
Lattice="16.28999089631971 0.0 0.0 0.0 16.28999089631971 0.0 0.0 0.0 34.24959146834617" Properties=species:S:1:pos:R:3:initial_magmoms:R:1 pbc="T T T"
Si      -1.35617671      -1.35729909       1.35655858       0.00000000
Si      -1.35628911       1.35671265      -1.35727782       0.00000000
Si       1.35775521       1.35632169       1.35724357       0.00000000
Si       1.35873261      -1.35837423      -1.35806556       0.00000000
Si      -2.71403044       2.71441899       0.00003425       0.00000000
Si       0.00159642      -2.71498914      -2.71380215       0.00000000
Si      -2.71399803      -2.71551042      -0.00003425       0.00000000
Si       0.00211770       2.71507059      -2.71458989       0.00000000
Si       2.71588509       0.00171045      -2.71400764       0.00000000
Si      -2.71379917       0.00141723       2.71623387       0.00000000
