10
Lattice="16.28999089631971 0.0 0.0 0.0 16.28999089631971 0.0 0.0 0.0 34.24959146834617" Properties=species:S:1:pos:R:3:initial_magmoms:R:1 pbc="T T T"
Si      -1.47698172      -1.61782899      -0.81387350       0.00000000
Si      -0.67541598       2.25141158       0.12651806       0.00000000
Si       0.06094089      -0.86207073       2.44028476       0.00000000
Si       1.26718281       0.62884939      -2.39675350       0.00000000
Si       3.05702768      -0.46354400      -1.42533180       0.00000000
Si       2.91225405      -2.19260535       0.28077831       0.00000000
Si      -2.76226272       2.06785586       1.20914825       0.00000000
Si       0.23092704       2.81276498       2.41093284       0.00000000
Si       2.27305773      -1.68269577       2.45408735       0.00000000
Si      -1.00041777      -3.63980895       0.25464585       0.00000000
