10
Lattice="16.28999089631971 0.0 0.0 0.0 16.28999089631971 0.0 0.0 0.0 34.24959146834617" Properties=species:S:1:pos:R:3:initial_magmoms:R:1 pbc="T T T"
Si      -1.85049513       0.36688338       1.37974556       0.00000000
Si       1.10560230       1.86113250       0.88713341       0.00000000
Si      -0.54226152       0.56136969      -2.21865553       0.00000000
Si       1.50468354      -1.79104382       0.25872156       0.00000000
Si       1.78783632       0.29563092      -2.83415528       0.00000000
Si       0.09158238       3.57492195      -0.38321889       0.00000000
Si       1.49567354      -2.18128706       2.52703902       0.00000000
Si      -3.38115240      -1.23997037       0.75866312       0.00000000
Si       0.57627504       1.93730454       3.19220071       0.00000000
Si      -1.14841242       2.83773429      -2.27797585       0.00000000
