10
Lattice="16.28999089631971 0.0 0.0 0.0 16.28999089631971 0.0 0.0 0.0 34.24959146834617" Properties=species:S:1:pos:R:3:initial_magmoms:R:1 pbc="T T T"
Si      -1.53065727      -1.60685375      -0.62108244       0.00000000
Si       1.85049513      -0.36688338      -1.37974556       0.00000000
Si       0.61851501       0.12569364       2.26999569       0.00000000
Si      -0.95966019       2.15441766      -0.42075647       0.00000000
Si       2.95609743       1.49424912      -0.49261215       0.00000000
Si       2.42677017       1.57042116       1.81245514       0.00000000
Si      -3.57901074      -0.41176233      -0.23245211       0.00000000
Si      -3.09467646       1.82392614       0.48990643       0.00000000
Si      -0.44994609      -3.62523266       0.34544157       0.00000000
Si       1.30823361       0.19448631      -3.59840109       0.00000000
