10
Lattice="16.28999089631971 0.0 0.0 0.0 16.28999089631971 0.0 0.0 0.0 34.24959146834617" Properties=species:S:1:pos:R:3:initial_magmoms:R:1 pbc="T T T"
Si      -0.37185183       2.13118812       0.80764007       0.00000000
Si       1.01401992      -1.71378945       1.27035231       0.00000000
Si      -1.23999480      -0.73718766      -1.89475696       0.00000000
Si       0.96858711       0.57518361      -2.16019144       0.00000000
Si      -2.90173770      -1.05362091       1.34220799       0.00000000
Si      -3.29926257      -0.27290637      -0.86846738       0.00000000
Si       3.22936937      -1.40833566       0.64957811       0.00000000
Si      -0.63384390      -3.01355226      -1.83543663       0.00000000
Si      -0.09158238      -3.57492195       0.38321889       0.00000000
Si      -2.17181538       0.68172021       2.78966503       0.00000000
