10
Lattice="16.28999089631971 0.0 0.0 0.0 16.28999089631971 0.0 0.0 0.0 34.24959146834617" Properties=species:S:1:pos:R:3:initial_magmoms:R:1 pbc="T T T"
Si       0.57518265       2.22620769      -0.08264431       0.00000000
Si       1.24884746      -0.93058254      -1.89992865       0.00000000
Si      -2.40836247      -0.55156311       0.21275858       0.00000000
Si       0.87330268       0.51996051       2.32880227       0.00000000
Si      -1.18537443       2.95873641      -1.44115512       0.00000000
Si      -0.36603630      -0.57761082      -3.51606503       0.00000000
Si      -2.16551115      -1.82475693       2.29321693       0.00000000
Si       2.55929651      -1.36570473       2.24879518       0.00000000
Si      -3.32213373       1.59068592       0.88682517       0.00000000
Si      -0.89208927       1.64866203      -3.36372276       0.00000000
