10
Lattice="16.28999089631971 0.0 0.0 0.0 16.28999089631971 0.0 0.0 0.0 34.24959146834617" Properties=species:S:1:pos:R:3:initial_magmoms:R:1 pbc="T T T"
Si       1.76055708      -0.73252872       1.35851080       0.00000000
Si       0.29328516      -1.31007438      -1.92256764       0.00000000
Si       0.94718205       1.81876221      -1.18537902       0.00000000
Si      -2.29721580       0.29875860       0.69502735       0.00000000
Si       1.40032817       0.43127775      -3.04475613       0.00000000
Si      -2.13675930      -1.36805049       2.32798028       0.00000000
Si       1.18537443      -2.95873641       1.44115512       0.00000000
Si      -1.83716991      -1.21700961      -2.86066448       0.00000000
Si      -3.44856042      -0.81202392      -1.15534211       0.00000000
Si       3.03867863       2.20182156      -0.19193482       0.00000000
