10
Lattice="16.28999089631971 0.0 0.0 0.0 16.28999089631971 0.0 0.0 0.0 34.24959146834617" Properties=species:S:1:pos:R:3:initial_magmoms:R:1 pbc="T T T"
Si      -1.12832685      -1.66456107       1.19085211       0.00000000
Si       1.72807578       1.10623761       1.14386850       0.00000000
Si      -1.70872326       1.68635709      -0.20809519       0.00000000
Si      -0.50282343      -2.64318282      -1.62020664       0.00000000
Si      -1.47483144       1.29969765      -2.72835279       0.00000000
Si      -0.66327993      -0.97637373      -3.25315957       0.00000000
Si       0.29665719       2.34414729       2.59345244       0.00000000
Si      -2.45744424      -0.37556595       2.60106270       0.00000000
Si      -2.56287312      -2.83019202      -0.57922397       0.00000000
Si      -0.95835699       3.63108987       1.05721013       0.00000000
