10
Lattice="16.28999089631971 0.0 0.0 0.0 16.28999089631971 0.0 0.0 0.0 34.24959146834617" Properties=species:S:1:pos:R:3:initial_magmoms:R:1 pbc="T T T"
Si       1.34115570       1.35231435       1.37267302       0.00000000
Si      -1.25501418       1.28694258      -1.53624231       0.00000000
Si      -1.37433843      -1.36186029       1.36517235       0.00000000
Si       1.43141859      -1.23790968      -1.44958394       0.00000000
Si      -2.00538045      -0.65779020      -2.80154763       0.00000000
Si      -0.29665719      -2.34414729      -2.59345244       0.00000000
Si       2.69902532       2.69443116       0.01164487       0.00000000
Si       2.69772174      -2.72106531      -0.01791255       0.00000000
Si      -2.73105108       2.68986996      -0.02794426       0.00000000
Si       2.69950540      -0.00465894       2.72803286       0.00000000
