10
Lattice="16.28999089631971 0.0 0.0 0.0 16.28999089631971 0.0 0.0 0.0 34.24959146834617" Properties=species:S:1:pos:R:3:initial_magmoms:R:1 pbc="T T T"
Si       1.35694071      -1.35668007      -1.35703807       0.00000000
Si      -1.35734796       1.35803214      -1.35724357       0.00000000
Si       1.35812988       1.35742941       1.35738057       0.00000000
Si      -1.35956340      -1.35620766       1.35792856       0.00000000
Si       2.71305063       0.00201996       2.71387065       0.00000000
Si       0.00109143       2.71463076      -2.71318565       0.00000000
Si       2.71434559       0.00156384      -2.71411039       0.00000000
Si      -2.71541268      -0.00065160       2.71383640       0.00000000
Si      -2.71523349       0.00136836      -2.71424739       0.00000000
Si       2.71512423      -2.71489140       0.00006850       0.00000000
