10
Lattice="16.28999089631971 0.0 0.0 0.0 16.28999089631971 0.0 0.0 0.0 34.24959146834617" Properties=species:S:1:pos:R:3:initial_magmoms:R:1 pbc="T T T"
Si      -1.35584928       1.35555606       1.35590783       0.00000000
Si      -1.35560493      -1.35865116      -1.35775731       0.00000000
Si       1.35956340       1.35620766      -1.35792856       0.00000000
Si       1.36001952      -1.35988920       1.36142202       0.00000000
Si      -2.69524566      -0.00767259       2.72496752       0.00000000
Si      -2.71213839       2.71270854      -0.00078774       0.00000000
Si      -0.00746082       2.69780319       2.72739924       0.00000000
Si      -2.71166598      -2.71643895      -0.00099324       0.00000000
Si      -2.71327869      -0.00135207      -2.71541188       0.00000000
Si       0.00221544       2.71423980      -2.71517213       0.00000000
