10
Lattice="16.28999089631971 0.0 0.0 0.0 16.28999089631971 0.0 0.0 0.0 34.24959146834617" Properties=species:S:1:pos:R:3:initial_magmoms:R:1 pbc="T T T"
Si       1.35723393      -1.35729909      -1.36203851       0.00000000
Si      -1.36001952       1.35988920      -1.36142202       0.00000000
Si      -1.35523026      -1.38007251       1.36351125       0.00000000
Si       1.35223290       1.38937410       1.35782581       0.00000000
Si       2.69496873       0.01470987       2.64218621       0.00000000
Si       2.71489938      -2.71179630      -0.00308246       0.00000000
Si      -2.71524978      -2.71515204      -0.00626768       0.00000000
Si       2.71259451       2.71811682      -0.00547994       0.00000000
Si      -2.71586880       2.71544526      -0.00551419       0.00000000
Si      -2.66233986      -0.03331305       2.76880702       0.00000000
