10
Lattice="16.28999089631971 0.0 0.0 0.0 16.28999089631971 0.0 0.0 0.0 34.24959146834617" Properties=species:S:1:pos:R:3:initial_magmoms:R:1 pbc="T T T"
Si       1.69430661       0.59271165       1.45862242       0.00000000
Si       1.37327958      -1.41695307      -1.25161777       0.00000000
Si      -1.44215370      -1.06820046       1.53650603       0.00000000
Si      -0.48200481       1.60823025      -1.68826606       0.00000000
Si       2.87513613       0.52662312      -1.87804315       0.00000000
Si       1.60028073      -1.06807014       3.04883184       0.00000000
Si      -0.19404648      -2.83654512      -2.38151242       0.00000000
Si       3.67003993       0.69506172       0.33126223       0.00000000
Si      -2.56044591       2.57225616      -1.12328448       0.00000000
Si      -3.53864412      -0.03223791       1.46554084       0.00000000
