10
Lattice="16.28999089631971 0.0 0.0 0.0 16.28999089631971 0.0 0.0 0.0 34.24959146834617" Properties=species:S:1:pos:R:3:initial_magmoms:R:1 pbc="T T T"
Si       1.97573332       0.10235007      -1.12736018       0.00000000
Si      -0.35204319       1.90593000       1.21795040       0.00000000
Si      -0.09402588      -1.66078179       1.59020942       0.00000000
Si      -1.69430661      -0.59271165      -1.45862242       0.00000000
Si      -0.32102703      -2.00966472      -2.71024019       0.00000000
Si       1.18082952      -0.06608853      -3.33666556       0.00000000
Si      -3.13646031      -1.66091211       0.07788361       0.00000000
Si      -1.62834840       3.17415537      -0.27927132       0.00000000
Si      -2.49072471      -1.15782804       2.31712316       0.00000000
Si      -1.84774212       1.10957706       2.87847427       0.00000000
