10
Lattice="16.28999089631971 0.0 0.0 0.0 16.28999089631971 0.0 0.0 0.0 34.24959146834617" Properties=species:S:1:pos:R:3:initial_magmoms:R:1 pbc="T T T"
Si      -1.27045710       1.42714428       1.33268660       0.00000000
Si       1.33845156       1.35583019      -1.34453696       0.00000000
Si      -1.37891592      -1.35428544      -1.34080376       0.00000000
Si       1.33408584      -1.33736013       1.41235119       0.00000000
Si      -2.27555010      -0.30846744       2.48463800       0.00000000
Si      -0.54105606      -2.01461688       2.68540922       0.00000000
Si       2.69151429       0.00386073      -2.70277377       0.00000000
Si       2.81552680       0.14683806       2.57735170       0.00000000
Si       2.68124019      -2.72451879       0.03455786       0.00000000
Si      -0.02104668      -2.71208952      -2.70181478       0.00000000
