10
Lattice="16.28999089631971 0.0 0.0 0.0 16.28999089631971 0.0 0.0 0.0 34.24959146834617" Properties=species:S:1:pos:R:3:initial_magmoms:R:1 pbc="T T T"
Si      -0.42487578       0.08324190      -2.31582167       0.00000000
Si       0.30146274      -2.29135140       0.55563143       0.00000000
Si      -2.32321464       0.43570863       0.69026665       0.00000000
Si       1.58945718       1.88291223       0.71639911       0.00000000
Si       1.75204067      -1.70318466       2.30126559       0.00000000
Si       0.98187975       0.11297115       3.59244166       0.00000000
Si      -2.79977859       2.45768859      -0.37825270       0.00000000
Si      -2.15936982       1.78939134      -2.51659289       0.00000000
Si       0.95026086       2.39282181       2.88970815       0.00000000
Si       3.66579476       0.47557026      -1.23630819       0.00000000
