10
Lattice="16.28999089631971 0.0 0.0 0.0 16.28999089631971 0.0 0.0 0.0 34.24959146834617" Properties=species:S:1:pos:R:3:initial_magmoms:R:1 pbc="T T T"
Si       1.28163204       1.80460620       0.80058465       0.00000000
Si       1.14922692      -1.40642973       1.57195438       0.00000000
Si      -2.37620275       0.05416425       0.36999854       0.00000000
Si      -0.18824724      -0.91118115      -2.22718368       0.00000000
Si      -0.89723691      -1.90744497       2.65393383       0.00000000
Si       0.17744697       0.99064377      -3.48174692       0.00000000
Si       0.00477297       3.63863214       0.05856683       0.00000000
Si      -2.78296568      -2.09354193       1.17356291       0.00000000
Si       3.41977599       1.38320019      -0.03353037       0.00000000
Si      -0.43956936       3.03228576      -2.25112416       0.00000000
