10
Lattice="16.28999089631971 0.0 0.0 0.0 16.28999089631971 0.0 0.0 0.0 34.24959146834617" Properties=species:S:1:pos:R:3:initial_magmoms:R:1 pbc="T T T"
Si       0.11331324       2.30029461      -0.43942250       0.00000000
Si       1.65110553      -0.36882189       1.64644728       0.00000000
Si       0.63827478      -0.88519860      -2.12854480       0.00000000
Si      -2.10473316      -0.79777017       0.82589511       0.00000000
Si       0.04836501      -2.20289670       2.82100343       0.00000000
Si      -0.76134573       3.16174239       1.56510446       0.00000000
Si       3.63765474      -0.51810345       0.22296497       0.00000000
Si      -1.74860607      -3.08384361       1.05752523       0.00000000
Si      -3.71961692      -0.44479845      -0.79024127       0.00000000
Si      -0.97494021      -0.21551670      -3.71608275       0.00000000
