10
Lattice="16.28999089631971 0.0 0.0 0.0 16.28999089631971 0.0 0.0 0.0 34.24959146834617" Properties=species:S:1:pos:R:3:initial_magmoms:R:1 pbc="T T T"
Si       0.70744375       1.98223236       1.31372742       0.00000000
Si      -1.95655510      -0.70582941       1.36503334       0.00000000
Si       1.68599382      -1.88566524      -0.08000709       0.00000000
Si      -0.87330268      -0.51996051      -2.32880227       0.00000000
Si      -0.29812003       1.70624718      -2.41144658       0.00000000
Si       2.02818156       0.62740935       2.76119474       0.00000000
Si      -0.69334907      -2.10341367       2.77358625       0.00000000
Si       3.28889724      -0.71892657       1.21711612       0.00000000
Si       0.68418814      -3.51693607       1.37420539       0.00000000
Si      -3.03881383      -2.34471744      -0.03558535       0.00000000
