10
Lattice="16.28999089631971 0.0 0.0 0.0 16.28999089631971 0.0 0.0 0.0 34.24959146834617" Properties=species:S:1:pos:R:3:initial_magmoms:R:1 pbc="T T T"
Si      -1.35360289       1.35723393      -1.36149052       0.00000000
Si      -1.34850575      -1.35028787       1.37796458       0.00000000
Si       1.36080144      -1.35924249      -1.36046303       0.00000000
Si       1.35483930       1.36505313       1.38728048       0.00000000
Si       0.25431948      -2.57767373       2.72599501       0.00000000
Si      -2.71122535       2.71595025      -0.00181523       0.00000000
Si      -2.71142421      -0.00097740      -2.71808335       0.00000000
Si      -2.70895274      -2.72079837      -0.00342496       0.00000000
Si       0.00257382       2.71453302      -2.71804910       0.00000000
Si       0.00366525      -2.71649368      -2.71818610       0.00000000
