10
Lattice="16.28999089631971 0.0 0.0 0.0 16.28999089631971 0.0 0.0 0.0 34.24959146834617" Properties=species:S:1:pos:R:3:initial_magmoms:R:1 pbc="T T T"
Si      -1.73878483       0.86371209       1.32864514       0.00000000
Si       0.89581968      -1.78380387       1.46338311       0.00000000
Si      -0.17290206      -0.68465241      -2.37702573       0.00000000
Si       2.40023376       1.47657447      -0.37921169       0.00000000
Si      -0.79128349       2.73212622      -0.61515726       0.00000000
Si       0.56602863      -2.81628036      -1.90465510       0.00000000
Si       2.27336724      -2.65711077      -0.30697926       0.00000000
Si      -0.53993368       2.10698118       2.90162500       0.00000000
Si       2.25829899      -0.60199695       3.02784851       0.00000000
Si       1.29920895       0.60194808      -3.57254263       0.00000000
