10
Lattice="16.28999089631971 0.0 0.0 0.0 16.28999089631971 0.0 0.0 0.0 34.24959146834617" Properties=species:S:1:pos:R:3:initial_magmoms:R:1 pbc="T T T"
Si       0.73408767      -1.76912658       1.18757100       0.00000000
Si      -1.19747627       1.36727673       1.43416819       0.00000000
Si       1.48619697       1.35211677      -1.19246869       0.00000000
Si      -1.48144096      -1.48419819      -1.16500050       0.00000000
Si      -1.34224990      -0.36178461       3.14027830       0.00000000
Si       0.92508792      -0.94465710       3.31912976       0.00000000
Si      -0.11662825       2.57950262      -2.54049912       0.00000000
Si       2.61224322      -0.16034247      -2.55543195       0.00000000
Si       0.28176324       3.30054038       1.70412363       0.00000000
Si      -2.81552680      -0.14683806      -2.57735170       0.00000000
