10
Lattice="16.28999089631971 0.0 0.0 0.0 16.28999089631971 0.0 0.0 0.0 34.376317263855086" Properties=species:S:1:pos:R:3:initial_magmoms:R:1 pbc="T T T"
Si       1.35009891       1.34768318       1.37706791       0.00000000
Si      -1.36654366      -1.36837362       1.37400842       0.00000000
Si      -1.35906655       1.40113393      -1.38634952       0.00000000
Si       1.43467659      -1.31287359      -1.40139605       0.00000000
Si      -0.02482596      -2.53496568      -2.80022216       0.00000000
Si      -2.46561530       0.02390061      -2.88619737       0.00000000
Si       2.70958086       2.69157398      -0.01675846       0.00000000
Si       2.70689301      -2.73306837       0.00649713       0.00000000
Si      -2.73340969       2.70770108       0.01371272       0.00000000
Si      -0.00731421       2.70597434       2.73637701       0.00000000
