10
Lattice="16.28999089631971 0.0 0.0 0.0 16.28999089631971 0.0 0.0 0.0 34.376317263855086" Properties=species:S:1:pos:R:3:initial_magmoms:R:1 pbc="T T T"
Si       1.35604476      -1.35691906       1.36054665       0.00000000
Si      -1.35741312       1.35829115       1.35930910       0.00000000
Si      -1.35009891      -1.34768318      -1.37706791       0.00000000
Si       1.35948195       1.34389079      -1.39382638       0.00000000
Si       2.71435383      -2.71439523       0.00223446       0.00000000
Si       2.71482624       2.71616039      -0.00419391       0.00000000
Si       2.71427238       0.00090409       2.71686500       0.00000000
Si      -0.00105885      -2.71419975       2.71703688       0.00000000
Si      -2.71664257      -2.71605681      -0.00305949       0.00000000
Si      -2.71598609       0.00128854       2.71707126       0.00000000
