10
Lattice="16.28999089631971 0.0 0.0 0.0 16.28999089631971 0.0 0.0 0.0 34.376317263855086" Properties=species:S:1:pos:R:3:initial_magmoms:R:1 pbc="T T T"
Si      -1.35710361      -1.35728068       1.35649024       0.00000000
Si       1.35822762       1.35782316       1.35631836       0.00000000
Si      -1.35604476       1.35691906      -1.36054665       0.00000000
Si       1.35830907      -1.35747616      -1.35831218       0.00000000
Si       2.70482418       0.00545927      -2.71541432       0.00000000
Si       0.00048870      -2.71441687       2.71346174       0.00000000
Si      -2.71295289      -2.71510105       0.00017188       0.00000000
Si      -2.71456560      -0.00003564       2.71387426       0.00000000
Si      -2.71345788       2.71521021      -0.00123755       0.00000000
Si       2.71453302      -2.71428655      -0.00044689       0.00000000
