10
Lattice="16.28999089631971 0.0 0.0 0.0 16.28999089631971 0.0 0.0 0.0 34.376317263855086" Properties=species:S:1:pos:R:3:initial_magmoms:R:1 pbc="T T T"
Si      -1.35687555      -1.34069455      -1.38371630       0.00000000
Si       1.35589815       1.37034575      -1.38564137       0.00000000
Si      -1.44697554       1.29243068       1.39736370       0.00000000
Si       1.40214546      -1.43919774       1.72043251       0.00000000
Si       0.14322168       2.30166134       2.85309842       0.00000000
Si       2.20416732       0.75710870       2.95811813       0.00000000
Si       2.70330921      -2.70001116      -0.00061877       0.00000000
Si      -2.72749986      -2.69948988      -0.01753193       0.00000000
Si       2.70756090       2.73267845      -0.03743583       0.00000000
Si      -0.00472410      -2.70243837      -2.74598176       0.00000000
