10
Lattice="16.28999089631971 0.0 0.0 0.0 16.28999089631971 0.0 0.0 0.0 34.376317263855086" Properties=species:S:1:pos:R:3:initial_magmoms:R:1 pbc="T T T"
Si      -0.86403789      -1.84716382      -1.20709068       0.00000000
Si      -1.77176556      -0.44861031       1.52417801       0.00000000
Si       0.23822496       2.34602064      -0.52527042       0.00000000
Si       1.06199397       1.47548304      -2.65192810       0.00000000
Si      -2.10983193      -2.68868798       0.94706807       0.00000000
Si      -2.24842725      -0.56212717      -2.80627785       0.00000000
Si       2.15397783       2.86601373       0.80973461       0.00000000
Si      -0.81601497       0.17829405       3.58228927       0.00000000
Si       1.80968868      -2.24398727       2.29252350       0.00000000
Si       1.49490072      -0.17135451       3.58634568       0.00000000
