10
Lattice="16.28999089631971 0.0 0.0 0.0 16.28999089631971 0.0 0.0 0.0 34.376317263855086" Properties=species:S:1:pos:R:3:initial_magmoms:R:1 pbc="T T T"
Si      -1.75784480      -0.78784956      -1.37546598       0.00000000
Si       0.81016686       1.93881951      -1.34610858       0.00000000
Si       1.95155829      -1.73919370      -0.08226257       0.00000000
Si      -2.52210644       0.33420564       2.00108092       0.00000000
Si      -1.11820587      -1.46134332       2.67196951       0.00000000
Si      -1.74629519       2.51273250       1.51400261       0.00000000
Si      -0.32035914      -2.01163581      -2.79428051       0.00000000
Si       2.39515128       0.73588446      -2.78743962       0.00000000
Si      -3.15806804      -2.20347337       0.07397788       0.00000000
Si       0.93309120      -3.51734399      -1.31362295       0.00000000
