10
Lattice="16.28999089631971 0.0 0.0 0.0 16.28999089631971 0.0 0.0 0.0 34.376317263855086" Properties=species:S:1:pos:R:3:initial_magmoms:R:1 pbc="T T T"
Si       1.35728280      -1.35358497       1.35831218       0.00000000
Si      -1.35819504      -1.35550719      -1.35728089       0.00000000
Si       1.35728280       1.35949824      -1.35686838       0.00000000
Si      -1.35747828       1.36187658       1.36305612       0.00000000
Si       2.69224830       0.00171045       2.72886234       0.00000000
Si       2.71337643      -2.71345788       0.00006875       0.00000000
Si      -0.00029322      -2.71308321      -2.71432115       0.00000000
Si      -2.71662466      -2.71301805      -0.00030939       0.00000000
Si       2.71494027       0.00188964      -2.71473367       0.00000000
Si      -2.71536055       0.00198738      -2.71459616       0.00000000
