10
Lattice="16.28999089631971 0.0 0.0 0.0 16.28999089631971 0.0 0.0 0.0 34.376317263855086" Properties=species:S:1:pos:R:3:initial_magmoms:R:1 pbc="T T T"
Si       1.35470898       1.36186029       1.38125151       0.00000000
Si      -1.35816246      -1.35839052       1.38517041       0.00000000
Si      -1.45417572       1.35751086      -1.34454790       0.00000000
Si       1.41100722      -1.24532163      -1.58667419       0.00000000
Si      -2.70252729      -2.70611109       0.00026126       0.00000000
Si       2.71925712      -2.70270648      -0.01267112       0.00000000
Si       2.70537804       2.73284298       0.00538677       0.00000000
Si      -0.00156384      -2.71075374       2.74303571       0.00000000
Si       2.71495656       0.00188964       2.74337947       0.00000000
Si      -2.71521720       0.00379557       2.74392949       0.00000000
