10
Lattice="16.28999089631971 0.0 0.0 0.0 16.28999089631971 0.0 0.0 0.0 34.376317263855086" Properties=species:S:1:pos:R:3:initial_magmoms:R:1 pbc="T T T"
Si       1.35615879       1.35703845       1.35683400       0.00000000
Si       1.35765747      -1.35760860      -1.35786529       0.00000000
Si      -1.35793440       1.35783666      -1.35759028       0.00000000
Si      -1.35728280      -1.35949824       1.35686838       0.00000000
Si       2.71322982       0.00320913       2.71432115       0.00000000
Si       0.00000000      -2.71308321       2.71518056       0.00000000
Si      -2.71428867       0.00086337      -2.71493993       0.00000000
Si      -0.00063531      -2.71368594      -2.71583371       0.00000000
Si       2.71494027       2.71516833      -0.00003438       0.00000000
Si      -2.71531494       2.71484253      -0.00020626       0.00000000
