10
Lattice="16.28999089631971 0.0 0.0 0.0 16.28999089631971 0.0 0.0 0.0 34.376317263855086" Properties=species:S:1:pos:R:3:initial_magmoms:R:1 pbc="T T T"
Si       1.82588094      -1.08978471       0.98776965       0.00000000
Si      -0.87819390       0.39726423       2.17086565       0.00000000
Si       1.24603839       1.49514507      -1.48687968       0.00000000
Si      -1.53619587      -1.23352767      -1.48323579       0.00000000
Si       1.86466743       2.67714747       1.35370575       0.00000000
Si      -1.84142160       2.59662600       1.99269310       0.00000000
Si       2.71875213      -2.65816962      -0.50361333       0.00000000
Si      -0.03565881      -2.45560347      -2.97609695       0.00000000
Si       2.67745698       0.27359055      -2.99019125       0.00000000
Si      -3.38299317      -2.19208014      -0.03805460       0.00000000
