10
Lattice="16.28999089631971 0.0 0.0 0.0 16.28999089631971 0.0 0.0 0.0 34.376317263855086" Properties=species:S:1:pos:R:3:initial_magmoms:R:1 pbc="T T T"
Si      -0.94512951       1.52787168       1.46817895       0.00000000
Si       2.17660464      -0.48125547       0.68690796       0.00000000
Si       0.47439738       1.37502261      -1.83971840       0.00000000
Si      -1.54569294      -1.79206290       0.19608262       0.00000000
Si       2.01676716      -0.86809410       2.98300660       0.00000000
Si       2.81615004      -2.31388047      -0.66717594       0.00000000
Si      -1.28374974      -2.44719783       2.49414072       0.00000000
Si      -1.85891706       3.25558908       0.15046522       0.00000000
Si       1.06453521       0.04970079      -3.65021691       0.00000000
Si      -1.21656978       2.92833927      -2.11235712       0.00000000
