10
Lattice="16.28999089631971 0.0 0.0 0.0 16.28999089631971 0.0 0.0 0.0 34.376317263855086" Properties=species:S:1:pos:R:3:initial_magmoms:R:1 pbc="T T T"
Si       0.29553318      -1.09460655      -2.04652644       0.00000000
Si      -1.27317753       1.98187398      -0.20677366       0.00000000
Si       2.19183579       0.82285677       0.41481925       0.00000000
Si      -0.29436030      -1.42565193       1.90451779       0.00000000
Si      -1.94522148       1.41608970       2.06533030       0.00000000
Si       1.87071102      -2.67853212      -1.43122439       0.00000000
Si      -2.45400705      -2.32551153       1.32874853       0.00000000
Si      -0.59873895       0.12256596       3.59102086       0.00000000
Si       0.31713372       3.72263967      -0.27954837       0.00000000
Si       3.21541794       0.88150077      -1.82607099       0.00000000
