10
Lattice="16.28999089631971 0.0 0.0 0.0 16.28999089631971 0.0 0.0 0.0 34.376317263855086" Properties=species:S:1:pos:R:3:initial_magmoms:R:1 pbc="T T T"
Si      -1.45950255      -1.22209209      -1.39882611       0.00000000
Si       1.62282609       0.89580339      -1.47149769       0.00000000
Si       1.27221642      -1.42019478       1.40789317       0.00000000
Si      -1.43467659       1.31287359       1.40139605       0.00000000
Si      -1.97957709       0.49914189      -2.83348814       0.00000000
Si       2.65957056       2.53466766      -0.12157535       0.00000000
Si       3.36026862      -0.89138880      -1.38579748       0.00000000
Si       2.53861731      -2.76876243      -0.14976739       0.00000000
Si       2.62977615      -0.05383845       2.78069842       0.00000000
Si      -0.08457768       2.66055678       2.77846396       0.00000000
