10
Lattice="16.28999089631971 0.0 0.0 0.0 16.28999089631971 0.0 0.0 0.0 34.376317263855086" Properties=species:S:1:pos:R:3:initial_magmoms:R:1 pbc="T T T"
Si      -1.81897398      -1.62196272      -0.02454470       0.00000000
Si      -0.31025934       1.48313934      -1.94838200       0.00000000
Si      -0.90012024       1.26732942       1.98244895       0.00000000
Si       1.88711505      -1.54144125      -0.66353205       0.00000000
Si       2.35638108      -1.36228383       1.64294825       0.00000000
Si       3.43748322       0.11385081      -1.21595977       0.00000000
Si      -1.77075558       3.15035472      -0.67869201       0.00000000
Si      -1.52977761       0.09699066      -3.50349871       0.00000000
Si      -1.69678269      -0.43152210       3.44189631       0.00000000
Si       0.58432230      -3.31016058       1.90403652       0.00000000
