10
Lattice="16.28999089631971 0.0 0.0 0.0 16.28999089631971 0.0 0.0 0.0 34.376317263855086" Properties=species:S:1:pos:R:3:initial_magmoms:R:1 pbc="T T T"
Si       1.69096716      -1.55331666       0.27263872       0.00000000
Si      -1.42457679      -1.28381490      -1.38811647       0.00000000
Si      -0.64234728       0.32724981       2.26282235       0.00000000
Si       0.79666245       1.69885152      -1.45944737       0.00000000
Si      -1.31976693       2.74035267      -1.96642958       0.00000000
Si      -0.12219129      -1.19044062      -3.46644102       0.00000000
Si       1.21656978      -2.92833927       2.11235712       0.00000000
Si       3.77299206      -0.38037150       0.46473369       0.00000000
Si       0.27144027      -1.40046759       3.58053608       0.00000000
Si       1.69678269       0.43152210      -3.44189631       0.00000000
