10
Lattice="16.28999089631971 0.0 0.0 0.0 16.28999089631971 0.0 0.0 0.0 34.376317263855086" Properties=species:S:1:pos:R:3:initial_magmoms:R:1 pbc="T T T"
Si      -1.24732923       1.74276936      -0.85105496       0.00000000
Si      -0.80369973      -0.84131823       2.05281731       0.00000000
Si      -0.01220284      -1.54335437      -1.79774489       0.00000000
Si       2.24269643       0.73808361       0.29728656       0.00000000
Si       1.09498448      -2.20205681       2.70122377       0.00000000
Si       2.96667290      -0.73913106       2.02562563       0.00000000
Si      -0.18457547       2.35981827      -2.92301989       0.00000000
Si      -0.68336061       1.03024476       3.59614293       0.00000000
Si      -3.04686924      -1.72738250       1.64679840       0.00000000
Si      -3.44789646       1.14489378      -1.38065680       0.00000000
