10
Lattice="16.28999089631971 0.0 0.0 0.0 16.28999089631971 0.0 0.0 0.0 34.376317263855086" Properties=species:S:1:pos:R:3:initial_magmoms:R:1 pbc="T T T"
Si      -0.06791301       1.98805508      -1.33160177       0.00000000
Si       1.00308933      -0.25202259       2.19200710       0.00000000
Si       1.17296145      -1.53371979      -1.57969579       0.00000000
Si      -2.59931385      -0.64868409       0.83001664       0.00000000
Si      -0.73013409       0.89943836      -3.33244206       0.00000000
Si      -0.41734980      -3.27448548      -1.50692109       0.00000000
Si       3.01153230      -2.22928650      -0.06961208       0.00000000
Si      -2.60182251      -0.56348739      -2.65684392       0.00000000
Si      -2.43923202       2.90181005      -0.26954485       0.00000000
Si      -2.07923931      -2.36991807       2.26467867       0.00000000
