10
Lattice="16.28999089631971 0.0 0.0 0.0 16.28999089631971 0.0 0.0 0.0 34.376317263855086" Properties=species:S:1:pos:R:3:initial_magmoms:R:1 pbc="T T T"
Si       1.83554091       1.04867689       1.06154127       0.00000000
Si      -1.54943964      -1.17877439       1.38660391       0.00000000
Si       0.77232519      -1.69726880      -1.54030051       0.00000000
Si      -0.99797427       1.79277314      -1.37859422       0.00000000
Si      -2.49867423      -2.41655375      -0.40179062       0.00000000
Si       0.73998954       2.73510077       2.28963589       0.00000000
Si      -0.01122381      -0.72558659      -3.63615699       0.00000000
Si       0.19419309       1.65370541      -3.34447378       0.00000000
Si       2.76203466       2.54494760      -0.48725019       0.00000000
Si      -0.60478254      -3.61562807      -1.15329171       0.00000000
