10
Lattice="16.28999089631971 0.0 0.0 0.0 16.28999089631971 0.0 0.0 0.0 34.376317263855086" Properties=species:S:1:pos:R:3:initial_magmoms:R:1 pbc="T T T"
Si      -0.31785048       2.05951212       1.00289524       0.00000000
Si       0.08307900       0.52144290      -2.27488844       0.00000000
Si      -2.13434838      -1.05292044      -0.02526661       0.00000000
Si       2.06229771      -0.85245570       0.83754506       0.00000000
Si       0.32433390      -1.79478333      -2.83068505       0.00000000
Si       1.21310001       3.37126437      -0.29113319       0.00000000
Si       1.61518608       2.27496366      -2.34625372       0.00000000
Si      -2.52048654       2.64732048       0.66439146       0.00000000
Si      -2.08546209       1.40719536      -2.79015535       0.00000000
Si      -3.58880103       0.56777166       1.01389567       0.00000000
