10
Lattice="16.28999089631971 0.0 0.0 0.0 16.28999089631971 0.0 0.0 0.0 34.376317263855086" Properties=species:S:1:pos:R:3:initial_magmoms:R:1 pbc="T T T"
Si      -1.68467922      -0.94022459       1.35280995       0.00000000
Si      -0.21025503       0.39933306      -2.47571500       0.00000000
Si       1.03055427       1.83609477       1.40810772       0.00000000
Si       1.74695589      -1.85439007      -0.13468649       0.00000000
Si       1.61538156       1.90006560      -2.06873355       0.00000000
Si      -0.36795852      -2.16579527       2.89798158       0.00000000
Si       3.03339348       0.00798210      -2.09857221       0.00000000
Si      -2.72142369      -2.57908886       0.00288761       0.00000000
Si       2.35144521       0.53931303       2.88781306       0.00000000
Si       0.87773778      -3.51677384       1.47696352       0.00000000
