10
Lattice="16.28999089631971 0.0 0.0 0.0 16.28999089631971 0.0 0.0 0.0 34.376317263855086" Properties=species:S:1:pos:R:3:initial_magmoms:R:1 pbc="T T T"
Si       0.52567830      -1.73608624       1.47591363       0.00000000
Si       2.23811568       0.74505247      -0.32581892       0.00000000
Si      -1.11027753      -0.34661210      -2.10496621       0.00000000
Si      -0.86051925       1.79547891       1.46621950       0.00000000
Si       2.38312926       1.40412795       1.84336229       0.00000000
Si       0.45903591      -1.87117921      -3.11205536       0.00000000
Si       2.27048391      -2.89427266       0.40797836       0.00000000
Si      -1.36324494      -3.16020691       1.68320294       0.00000000
Si      -1.44818100       1.84223121      -3.07183505       0.00000000
Si       3.74138946      -1.06658353      -0.07387475       0.00000000
