10
Lattice="16.28999089631971 0.0 0.0 0.0 16.28999089631971 0.0 0.0 0.0 34.376317263855086" Properties=species:S:1:pos:R:3:initial_magmoms:R:1 pbc="T T T"
Si      -2.20263606       0.58780836      -0.33850379       0.00000000
Si       0.31785048      -2.05951212      -1.00289524       0.00000000
Si       0.06885783       0.18002079       2.38351767       0.00000000
Si       1.53095049       1.31175225      -1.29402843       0.00000000
Si       3.16666197       1.05397929       0.34108201       0.00000000
Si      -2.01655539       2.46951513       1.06511641       0.00000000
Si       2.04051798       1.44673119       2.38461771       0.00000000
Si      -3.27095055      -1.49174046       0.01100043       0.00000000
Si       0.40092948      -1.53806922      -3.27778368       0.00000000
Si      -2.27802618       1.33203330      -2.51703536       0.00000000
