10
Lattice="16.28999089631971 0.0 0.0 0.0 16.28999089631971 0.0 0.0 0.0 34.376317263855086" Properties=species:S:1:pos:R:3:initial_magmoms:R:1 pbc="T T T"
Si       1.97166015       1.26671040       0.00110004       0.00000000
Si      -0.06885783      -0.18002079      -2.38351767       0.00000000
Si      -2.02056273       1.11273732       0.73029089       0.00000000
Si       0.52794261      -1.83847311       1.53335649       0.00000000
Si      -2.08541322       2.28949434      -1.31840126       0.00000000
Si      -2.27149389       0.40778757      -2.72202145       0.00000000
Si       3.04056108       0.42775911       1.88609208       0.00000000
Si      -1.29769398      -3.33920565       1.12637504       0.00000000
Si       3.09780414       0.87395850      -2.04243566       0.00000000
Si       1.68862140       3.56255784      -0.23179964       0.00000000
