10
Lattice="16.28999089631971 0.0 0.0 0.0 16.28999089631971 0.0 0.0 0.0 34.376317263855086" Properties=species:S:1:pos:R:3:initial_magmoms:R:1 pbc="T T T"
Si       1.30394934      -1.42058574      -1.35662774       0.00000000
Si       1.36627488       1.34708526       1.37916487       0.00000000
Si      -1.35066906      -1.37098269       1.37586474       0.00000000
Si      -1.43967762       1.34223084      -1.54937586       0.00000000
Si      -2.70607851       2.69079849       0.00828470       0.00000000
Si       2.71467963       2.69325828      -0.00080784       0.00000000
Si      -2.70537804      -2.73284298      -0.00538677       0.00000000
Si       0.00770517       2.70034443       2.73895523       0.00000000
Si      -2.70686043      -0.01394424       2.73902399       0.00000000
Si       2.72334591      -0.01581759       2.73782082       0.00000000
