10
Lattice="16.28999089631971 0.0 0.0 0.0 16.28999089631971 0.0 0.0 0.0 34.376317263855086" Properties=species:S:1:pos:R:3:initial_magmoms:R:1 pbc="T T T"
Si       1.83326031      -0.77370984      -1.21664730       0.00000000
Si       0.64845603       1.35208629       1.78636632       0.00000000
Si      -1.05337656       1.24497954      -1.68289355       0.00000000
Si      -1.43319420      -1.78424370       0.65163783       0.00000000
Si       1.80779904      -0.24074991       3.11676492       0.00000000
Si      -3.13540146       0.07203438      -1.87498852       0.00000000
Si       0.94356567      -1.12057281      -3.37231861       0.00000000
Si      -0.79364880      -3.61686870      -0.70244606       0.00000000
Si      -1.24543566       2.55116061       2.53786742       0.00000000
Si       3.20038227       1.07015526      -1.80427640       0.00000000
