10
Lattice="16.28999089631971 0.0 0.0 0.0 16.28999089631971 0.0 0.0 0.0 34.376317263855086" Properties=species:S:1:pos:R:3:initial_magmoms:R:1 pbc="T T T"
Si       0.71461787       2.00964843       1.11582219       0.00000000
Si      -1.99156068      -0.72215199       1.14726623       0.00000000
Si       0.94484769       0.27916173      -2.31640203       0.00000000
Si       1.67594452      -1.85935689      -0.30511134       0.00000000
Si       2.05542007       0.58829706       2.52962122       0.00000000
Si      -0.68305581      -2.13117183       2.55024702       0.00000000
Si       3.40372708      -0.84634695       1.02165509       0.00000000
Si       0.69128733      -3.43773897       1.15018478       0.00000000
Si      -0.95095548       1.22665329      -3.41011955       0.00000000
Si       1.66553521      -2.10211047      -2.79791138       0.00000000
