10
Lattice="16.28999089631971 0.0 0.0 0.0 16.28999089631971 0.0 0.0 0.0 34.376317263855086" Properties=species:S:1:pos:R:3:initial_magmoms:R:1 pbc="T T T"
Si      -1.35622395       1.35681039      -1.35786529       0.00000000
Si      -1.35702216      -1.35738054       1.35707464       0.00000000
Si       1.35856971      -1.35325917      -1.35979037       0.00000000
Si       1.35816246       1.35754344       1.35686838       0.00000000
Si      -2.71404432      -0.00013032       2.71390864       0.00000000
Si      -2.71453302       2.71428655       0.00044689       0.00000000
Si      -2.71456560      -2.71428867       0.00006875       0.00000000
Si       2.71420722       2.71478101      -0.00103129       0.00000000
Si       0.00084708       2.71476808       2.71480242       0.00000000
Si       0.00092853      -2.71508688       2.71449303       0.00000000
