10
Lattice="16.28999089631971 0.0 0.0 0.0 16.28999089631971 0.0 0.0 0.0 34.376317263855086" Properties=species:S:1:pos:R:3:initial_magmoms:R:1 pbc="T T T"
Si      -1.16646174       1.51205409      -1.39361668       0.00000000
Si       1.17248904       1.63300734       1.31647618       0.00000000
Si      -0.44434233       0.15457581       2.36767017       0.00000000
Si       1.55841543      -1.20464550      -1.39787935       0.00000000
Si       0.87597846      -3.39887592       0.91857009       0.00000000
Si      -2.46762549       2.77286751       0.32743460       0.00000000
Si      -2.61333954      -2.68271865       0.07951247       0.00000000
Si      -2.51673984       0.15718221      -2.77664545       0.00000000
Si       0.19956879      -2.55779064      -2.78077061       0.00000000
Si      -0.80096301       2.85286935       2.36914836       0.00000000
