10
Lattice="16.28999089631971 0.0 0.0 0.0 16.28999089631971 0.0 0.0 0.0 34.376317263855086" Properties=species:S:1:pos:R:3:initial_magmoms:R:1 pbc="T T T"
Si      -0.94923459      -1.23777936      -1.78839453       0.00000000
Si       1.54943964       1.17877439      -1.38660391       0.00000000
Si      -1.56931344       1.52456711       1.00708915       0.00000000
Si       0.96461235      -1.77199362       1.42328346       0.00000000
Si       0.94465710      -2.43685368      -2.53989562       0.00000000
Si      -0.45903591       1.87117921       3.11205536       0.00000000
Si       2.32176483      -0.51849441      -2.92690442       0.00000000
Si      -3.68033454       0.46810944       1.11595901       0.00000000
Si      -0.76256748      -3.43459989       1.73865197       0.00000000
Si      -1.88752230       0.21245418      -3.44048688       0.00000000
