10
Lattice="16.28999089631971 0.0 0.0 0.0 16.28999089631971 0.0 0.0 0.0 34.376317263855086" Properties=species:S:1:pos:R:3:initial_magmoms:R:1 pbc="T T T"
Si       0.56689200      -0.30533976      -2.24730594       0.00000000
Si       1.80564876       1.01323800       1.11976482       0.00000000
Si      -1.08610317      -1.84524812       1.10930066       0.00000000
Si      -1.75389543       1.81543905      -0.28101387       0.00000000
Si      -1.63010772      -0.93348216      -2.46532067       0.00000000
Si      -2.31205599      -0.40215123       2.52106461       0.00000000
Si       0.42108021       2.33077320       2.51953486       0.00000000
Si       2.52343503      -1.56442481      -2.19185691       0.00000000
Si      -0.53550117       3.22483356      -2.08274642       0.00000000
Si       0.84405006       1.73038896      -3.36618694       0.00000000
