10
Lattice="16.28999089631971 0.0 0.0 0.0 16.28999089631971 0.0 0.0 0.0 34.376317263855086" Properties=species:S:1:pos:R:3:initial_magmoms:R:1 pbc="T T T"
Si       1.34828162       1.33275413       1.37415967       0.00000000
Si       1.35255774      -1.35995747      -1.35824343       0.00000000
Si      -1.36086660       1.35387412      -1.35759028       0.00000000
Si      -1.37608146      -1.35674834       1.37402217       0.00000000
Si      -0.08920404       2.55654038       2.79297421       0.00000000
Si       2.71098899      -2.71484564       0.00347201       0.00000000
Si       2.71343249       2.71367372       0.00305949       0.00000000
Si       2.71208042      -0.00209341      -2.71521494       0.00000000
Si      -0.00278354       2.71341308      -2.71528369       0.00000000
Si      -2.71982727      -2.70979574       0.00072190       0.00000000
