10
Lattice="16.28999089631971 0.0 0.0 0.0 16.28999089631971 0.0 0.0 0.0 34.376317263855086" Properties=species:S:1:pos:R:3:initial_magmoms:R:1 pbc="T T T"
Si       1.24559856      -1.36924486       1.42568980       0.00000000
Si      -1.34319195      -1.35152496      -1.35941223       0.00000000
Si       1.36570473       1.36428587      -1.35948098       0.00000000
Si      -1.43873280       1.32395183       1.34779302       0.00000000
Si       0.07338645       2.56805171       2.67564777       0.00000000
Si      -0.37388808      -2.58925545       2.73477507       0.00000000
Si       2.71036278      -2.70809100       0.01189421       0.00000000
Si      -2.71283886      -2.71020870       0.02468221       0.00000000
Si      -2.70601335       0.00324171      -2.71985574       0.00000000
Si      -2.70858717       2.72248091      -0.01213485       0.00000000
