10
Lattice="16.28999089631971 0.0 0.0 0.0 16.28999089631971 0.0 0.0 0.0 34.376317263855086" Properties=species:S:1:pos:R:3:initial_magmoms:R:1 pbc="T T T"
Si      -1.35141840      -1.15881878      -1.45460030       0.00000000
Si      -1.38523644       1.36207858       1.30777897       0.00000000
Si       0.56294982      -2.08516954       1.16064825       0.00000000
Si       1.40022324       1.41562381      -1.44944385       0.00000000
Si       0.63596160       2.53767901       1.92710305       0.00000000
Si       2.03986216       0.74213005       2.59799163       0.00000000
Si      -2.52363051       2.77847779      -0.20464233       0.00000000
Si       1.18382688      -1.31880649       3.33213267       0.00000000
Si       0.11334582      -2.49766492      -2.86839589       0.00000000
Si      -2.97090504      -2.37882937      -0.14551503       0.00000000
