10
Lattice="16.28999089631971 0.0 0.0 0.0 16.28999089631971 0.0 0.0 0.0 34.376317263855086" Properties=species:S:1:pos:R:3:initial_magmoms:R:1 pbc="T T T"
Si       0.92572812       0.84699529       2.00307475       0.00000000
Si       1.87152552      -0.34248000      -1.45807231       0.00000000
Si      -1.59477471      -1.71874065       0.55002138       0.00000000
Si      -1.27485540       1.74492778      -1.11503085       0.00000000
Si      -2.70111006      -2.20094094      -1.49416746       0.00000000
Si      -2.96592030      -0.80953059       2.22445836       0.00000000
Si       1.55852946      -0.90785703       3.37936576       0.00000000
Si      -0.57024774       2.22147545       3.10229249       0.00000000
Si      -0.00039096       3.77125717      -0.95036820       0.00000000
Si       2.72756080       1.71845653      -2.19221335       0.00000000
