10
Lattice="16.28999089631971 0.0 0.0 0.0 16.28999089631971 0.0 0.0 0.0 34.376317263855086" Properties=species:S:1:pos:R:3:initial_magmoms:R:1 pbc="T T T"
Si      -1.34452773      -1.34537481      -1.37069110       0.00000000
Si       1.35418770       1.34456031      -1.36221390       0.00000000
Si      -1.35509994       1.35581670       1.35497768       0.00000000
Si       1.35765670      -1.35796698       1.35590584       0.00000000
Si      -2.71360449      -0.00135207       2.71325549       0.00000000
Si       0.00087966       2.71419093       2.71301485       0.00000000
Si      -2.71388142       2.71430496      -0.00725341       0.00000000
Si       0.00114030      -2.71581993       2.71260233       0.00000000
Si       2.71597698      -0.00092853       2.71277422       0.00000000
Si       2.71424536      -2.71469592      -0.00574085       0.00000000
