10
Lattice="16.28999089631971 0.0 0.0 0.0 16.28999089631971 0.0 0.0 0.0 34.376317263855086" Properties=species:S:1:pos:R:3:initial_magmoms:R:1 pbc="T T T"
Si      -1.39644396       1.30549689      -1.43445577       0.00000000
Si       1.31602023      -1.40253642      -1.42039585       0.00000000
Si      -1.34446257      -1.55789415       1.24115763       0.00000000
Si       0.99155601       1.64542032       1.48347642       0.00000000
Si       2.56147218       2.62773990      -0.02743232       0.00000000
Si      -2.81022048      -0.27916173       2.44903896       0.00000000
Si      -0.04854420       2.66365935      -2.79720250       0.00000000
Si       2.66924682      -0.04810437      -2.79892132       0.00000000
Si      -2.82502809       2.64551229      -0.17016287       0.00000000
Si       2.57939118      -2.92074813      -0.00364389       0.00000000
