10
Lattice="16.28999089631971 0.0 0.0 0.0 16.28999089631971 0.0 0.0 0.0 34.376317263855086" Properties=species:S:1:pos:R:3:initial_magmoms:R:1 pbc="T T T"
Si       1.00062044       1.52692686      -1.48107008       0.00000000
Si       1.10818656      -2.09201067       0.13588966       0.00000000
Si      -0.48725019       0.78693732       2.20287002       0.00000000
Si      -2.01432366      -1.21435434      -0.96810639       0.00000000
Si      -2.47676418      -0.91455318       1.49478624       0.00000000
Si      -0.51525270      -1.74772152      -2.77788300       0.00000000
Si       1.83813495       1.58767227       2.37983940       0.00000000
Si      -1.07421147       2.67116904      -1.87416349       0.00000000
Si       0.91142617       0.08597862      -3.33519216       0.00000000
Si       0.04543281      -2.70905958       2.20785459       0.00000000
