10
Lattice="16.28999089631971 0.0 0.0 0.0 16.28999089631971 0.0 0.0 0.0 34.376317263855086" Properties=species:S:1:pos:R:3:initial_magmoms:R:1 pbc="T T T"
Si      -2.14752699       0.92519055      -0.22344619       0.00000000
Si       0.32162976      -2.39238198       0.18346651       0.00000000
Si       0.46244052      -0.29980116      -2.46289263       0.00000000
Si       1.98951399       1.70149050       0.70808378       0.00000000
Si       2.47676418       0.91455318      -1.49478624       0.00000000
Si       1.99256022      -0.11445354       2.35292273       0.00000000
Si       2.52219699      -1.79450640       0.71306835       0.00000000
Si      -0.05595615      -2.63191014      -2.08760616       0.00000000
Si      -0.12033423      -0.44409798       3.54729416       0.00000000
Si      -2.54961306       2.02149126       1.83167434       0.00000000
