10
Lattice="16.28999089631971 0.0 0.0 0.0 16.28999089631971 0.0 0.0 0.0 34.376317263855086" Properties=species:S:1:pos:R:3:initial_magmoms:R:1 pbc="T T T"
Si      -1.25973828      -1.23673680      -1.55130094       0.00000000
Si       1.30795668       1.37008674      -1.59698709       0.00000000
Si      -1.50314346       1.77720642       1.31537614       0.00000000
Si       1.98839554      -1.45657035       1.23022595       0.00000000
Si       3.15239912       0.65000358       1.23603555       0.00000000
Si       0.57779001       3.33319464       1.07938259       0.00000000
Si       2.55048687       2.54397672      -0.06118988       0.00000000
Si      -0.73234953      -0.29137923       3.73945788       0.00000000
Si      -3.25257543      -1.99234845      -0.62468679       0.00000000
Si       0.14328684      -2.51072883      -2.96162452       0.00000000
