10
Lattice="16.28999089631971 0.0 0.0 0.0 16.28999089631971 0.0 0.0 0.0 34.376317263855086" Properties=species:S:1:pos:R:3:initial_magmoms:R:1 pbc="T T T"
Si       1.97638166      -0.02021589       1.20561250       0.00000000
Si      -1.63927899       1.16462097       1.16332960       0.00000000
Si       0.36971784       0.44826822      -2.27454468       0.00000000
Si      -0.88130529      -2.19703230      -0.16682836       0.00000000
Si      -2.77711920       1.67234769      -0.87109637       0.00000000
Si       1.19352662      -3.34127448       0.22626505       0.00000000
Si       3.07808414      -1.79046648       0.16273758       0.00000000
Si      -1.82905749       0.92043387      -2.95725872       0.00000000
Si       2.52929033       2.30479065       1.29052205       0.00000000
Si      -3.00723174      -1.93306914       0.88546567       0.00000000
