10
Lattice="16.28999089631971 0.0 0.0 0.0 16.28999089631971 0.0 0.0 0.0 34.376317263855086" Properties=species:S:1:pos:R:3:initial_magmoms:R:1 pbc="T T T"
Si      -0.91712700       1.74014667      -1.27879972       0.00000000
Si       0.61846614      -1.45205802      -1.97835816       0.00000000
Si       1.54644458       0.65603088       1.94490999       0.00000000
Si      -1.73651400      -1.43169552       1.92218723       0.00000000
Si      -0.14006142      -0.24979086       3.46049189       0.00000000
Si       2.79240966      -0.53219430      -2.37378916       0.00000000
Si      -2.07269073       0.74166741      -3.05217179       0.00000000
Si      -2.53964358       3.01812975      -0.08068126       0.00000000
Si       0.89735094      -3.68124678      -1.13840676       0.00000000
Si       0.62187075       3.14973666      -2.32731236       0.00000000
