10
Lattice="16.28999089631971 0.0 0.0 0.0 16.28999089631971 0.0 0.0 0.0 34.376317263855086" Properties=species:S:1:pos:R:3:initial_magmoms:R:1 pbc="T T T"
Si      -1.35643572       1.34881200      -1.35958411       0.00000000
Si       1.34374581       1.35304740       1.37330027       0.00000000
Si       1.35832536      -1.36575360      -1.35872470       0.00000000
Si      -1.35457866      -1.36576989       1.38182560       0.00000000
Si       2.52351648      -0.19756512       2.72597473       0.00000000
Si      -2.70980892       2.70961344       0.00199383       0.00000000
Si       0.00149868       2.70841412      -2.71586809       0.00000000
Si      -2.71308321      -0.00656487      -2.71603997       0.00000000
Si       2.71982727       2.70979574      -0.00072190       0.00000000
Si      -2.71342530      -2.71891503      -0.00106567       0.00000000
