10
Lattice="16.28999089631971 0.0 0.0 0.0 16.28999089631971 0.0 0.0 0.0 34.376317263855086" Properties=species:S:1:pos:R:3:initial_magmoms:R:1 pbc="T T T"
Si      -0.03531672      -1.97411994      -1.21915677       0.00000000
Si       1.39292532       1.60725285      -0.99089790       0.00000000
Si       1.42796511      -0.86745879       1.76213101       0.00000000
Si      -2.34797544       0.73389708      -0.04994882       0.00000000
Si       3.52892618       0.01316232       1.06446326       0.00000000
Si       0.29545173      -0.23374521       3.71872895       0.00000000
Si      -1.17315693      -1.46639322      -3.25358274       0.00000000
Si      -0.85419873      -3.73664907       0.34489778       0.00000000
Si       3.07742765       2.28786534       0.58601341       0.00000000
Si      -3.72508317      -1.18446219       0.33705998       0.00000000
