10
Lattice="16.28999089631971 0.0 0.0 0.0 16.28999089631971 0.0 0.0 0.0 34.376317263855086" Properties=species:S:1:pos:R:3:initial_magmoms:R:1 pbc="T T T"
Si      -1.27417122      -1.38228795       1.40211249       0.00000000
Si      -0.90005508      -0.74259594      -2.09176570       0.00000000
Si       1.43907489       1.46051253       1.25458300       0.00000000
Si       1.28272347       2.20615470      -2.61951122       0.00000000
Si      -2.62409094       0.05188365       2.79456725       0.00000000
Si       0.10862172      -2.65131153       2.81494210       0.00000000
Si       0.72246150      -2.02057902      -3.28988415       0.00000000
Si       0.09585036       2.77016337       2.79297562       0.00000000
Si       2.80266192       0.06371019       2.78735509       0.00000000
Si      -2.00503836      -3.46499703       0.28270278       0.00000000
