10
Lattice="16.28999089631971 0.0 0.0 0.0 16.28999089631971 0.0 0.0 0.0 34.376317263855086" Properties=species:S:1:pos:R:3:initial_magmoms:R:1 pbc="T T T"
Si      -1.75375601      -0.88449813      -1.32025758       0.00000000
Si       1.13306724       1.73820816      -1.25573320       0.00000000
Si      -1.16250490       1.56644640       1.46446631       0.00000000
Si       1.76816547      -1.94039964       0.21932103       0.00000000
Si      -0.31808831      -2.21392503      -2.72343088       0.00000000
Si       2.44102392       0.50463162      -2.72449655       0.00000000
Si      -0.59324433       0.39275190       3.66324554       0.00000000
Si      -3.32367218      -1.86681771       0.19065116       0.00000000
Si       2.03958945       3.28341240       0.23836552       0.00000000
Si      -1.72428740      -3.13240410       1.59299943       0.00000000
