10
Lattice="16.28999089631971 0.0 0.0 0.0 16.28999089631971 0.0 0.0 0.0 34.376317263855086" Properties=species:S:1:pos:R:3:initial_magmoms:R:1 pbc="T T T"
Si       1.30795668      -1.23357654      -1.46876335       0.00000000
Si       0.90652221       1.54520424       1.49409871       0.00000000
Si      -1.13306724      -1.73820816       1.25573320       0.00000000
Si      -1.42073235       1.46974896      -1.45583785       0.00000000
Si      -1.13156856       1.93481217       2.72600911       0.00000000
Si      -2.29557214      -0.17176176       2.72019951       0.00000000
Si       2.48189553      -2.72005533       0.02987304       0.00000000
Si       2.46586617       2.82905172       0.02684792       0.00000000
Si      -0.06729399      -2.58196500      -2.82879435       0.00000000
Si       2.64826530       0.13020597      -2.83271325       0.00000000
