10
Lattice="16.28999089631971 0.0 0.0 0.0 16.28999089631971 0.0 0.0 0.0 34.376317263855086" Properties=species:S:1:pos:R:3:initial_magmoms:R:1 pbc="T T T"
Si       2.15964675       0.89985960       0.57576926       0.00000000
Si       0.32309586      -2.30387841      -0.65538485       0.00000000
Si      -1.01726163       0.14133204       2.24013397       0.00000000
Si      -1.56248467       0.67150638      -2.14573655       0.00000000
Si       2.45400705       2.32551153      -1.32874853       0.00000000
Si      -1.56174022      -3.42503766       0.18336338       0.00000000
Si       1.85526810       2.44807749       2.26227233       0.00000000
Si       0.50878557       3.74160123       0.73658176       0.00000000
Si       0.79718373       0.94771962       3.68457748       0.00000000
Si      -0.65708973      -0.67898349      -3.87455688       0.00000000
