10
Lattice="16.28999089631971 0.0 0.0 0.0 16.28999089631971 0.0 0.0 0.0 34.376317263855086" Properties=species:S:1:pos:R:3:initial_magmoms:R:1 pbc="T T T"
Si       1.35507959       1.35668007       1.35676525       0.00000000
Si       1.35719729      -1.35757602      -1.35765903       0.00000000
Si      -1.35785605       1.35749457      -1.35793404       0.00000000
Si      -1.35898006      -1.35891180       1.35700588       0.00000000
Si       2.71460226       2.71454413      -0.00020626       0.00000000
Si       2.71437420      -2.71511946      -0.00020626       0.00000000
Si      -0.00137146      -2.71495656      -2.71476804       0.00000000
Si       0.00219605      -2.71344159       2.71648686       0.00000000
Si       2.71621497      -0.00052128      -2.71390864       0.00000000
Si      -0.00061196       2.71549397      -2.71490555       0.00000000
