10
Lattice="16.28999089631971 0.0 0.0 0.0 16.28999089631971 0.0 0.0 0.0 34.376317263855086" Properties=species:S:1:pos:R:3:initial_magmoms:R:1 pbc="T T T"
Si       1.35717691      -1.35754344       1.35745277       0.00000000
Si       1.35901769       1.35705474      -1.35624960       0.00000000
Si      -1.35719729       1.35757602       1.35765903       0.00000000
Si      -1.35856875      -1.35738054      -1.35710901       0.00000000
Si       2.71336828       0.00083079      -2.71414927       0.00000000
Si       2.71343344      -0.00175932       2.71469929       0.00000000
Si      -0.00211770       2.71425609       2.71442428       0.00000000
Si       2.71455746      -2.71454931       0.00006875       0.00000000
Si      -2.71493931      -0.00078192      -2.71476804       0.00000000
Si       2.71486697       2.71487511       0.00006875       0.00000000
