10
Lattice="16.28999089631971 0.0 0.0 0.0 16.28999089631971 0.0 0.0 0.0 34.376317263855086" Properties=species:S:1:pos:R:3:initial_magmoms:R:1 pbc="T T T"
Si      -0.90652221      -1.54520424      -1.49409871       0.00000000
Si      -2.03809077       0.38960793       1.23191039       0.00000000
Si       1.27014759      -0.43510590       2.01170321       0.00000000
Si       1.55934396       1.28384748      -1.46725079       0.00000000
Si      -2.64000301       2.28358107      -0.06531504       0.00000000
Si      -2.32725456      -0.07545528      -2.94993656       0.00000000
Si      -3.20209435      -1.71696600       1.22610079       0.00000000
Si       2.77886223       2.66999616       0.08786592       0.00000000
Si      -2.03958945      -3.28341240      -0.23836552       0.00000000
Si       3.08912157       1.18685682       2.03624791       0.00000000
