10
Lattice="16.28999089631971 0.0 0.0 0.0 16.28999089631971 0.0 0.0 0.0 34.376317263855086" Properties=species:S:1:pos:R:3:initial_magmoms:R:1 pbc="T T T"
Si       0.68435919      -0.02598255      -2.21968005       0.00000000
Si       1.71203013      -0.35420976       1.62998837       0.00000000
Si      -1.63257240      -1.80193464       0.05764912       0.00000000
Si      -0.47244258       2.35678833       0.48006554       0.00000000
Si      -2.10409133       1.60725285       2.10022228       0.00000000
Si      -3.20182298      -0.30815793       1.06625083       0.00000000
Si      -1.12813137       0.74078775      -3.54045327       0.00000000
Si       2.62425384       1.26529317      -2.59304144       0.00000000
Si       1.10482038      -2.25554598      -2.99056939       0.00000000
Si       3.30234138       1.38655593       1.55721367       0.00000000
