10
Lattice="16.28999089631971 0.0 0.0 0.0 16.28999089631971 0.0 0.0 0.0 34.376317263855086" Properties=species:S:1:pos:R:3:initial_magmoms:R:1 pbc="T T T"
Si      -0.52007454       1.72123398      -1.43466203       0.00000000
Si       0.98984556      -1.47035169      -1.49949580       0.00000000
Si       1.45950255       1.22209209       1.39882611       0.00000000
Si      -1.34620560      -1.46230443       1.29193289       0.00000000
Si      -2.44078934       2.55886629      -0.08597522       0.00000000
Si       2.33632809      -2.76387543       0.02619477       0.00000000
Si       3.08232864       2.11789548      -0.07267158       0.00000000
Si       0.02482596       2.53496568       2.80022216       0.00000000
Si       2.07923931       2.36991807      -2.26467867       0.00000000
Si      -2.71076093      -0.18381636       2.79041459       0.00000000
