10
Lattice="10.86 0.0 0.0 0.0 10.86 0.0 0.0 0.0 10.86" Properties=species:S:1:pos:R:3:initial_magmoms:R:1 pbc="T T T"
Si      -1.47501606       1.47501606      -1.21233438       0.00000000
Si       1.44085050      -1.44085050      -1.51196178       0.00000000
Si       2.61438210       0.10061790       2.58873078       0.00000000
Si      -0.10061790      -2.61438210       2.58873078       0.00000000
Si       2.61438210      -2.61438210      -0.12626922       0.00000000
Si      -0.10061790       2.81561790       2.58873078       0.00000000
Si      -2.81561790       0.10061790       2.58873078       0.00000000
Si       2.61438210       2.81561790      -0.12626922       0.00000000
Si      -2.81561790      -2.61438210      -0.12626922       0.00000000
Si       2.61438210       0.10061790      -2.84126922       0.00000000
