10
Lattice="10.86 0.0 0.0 0.0 10.86 0.0 0.0 0.0 10.86" Properties=species:S:1:pos:R:3:initial_magmoms:R:1 pbc="T T T"
Si      -1.47737268      -1.25033352       1.18311012       0.00000000
Si       1.23762732      -1.25033352      -1.53188988       0.00000000
Si       1.19702178       1.64867832       1.25116974       0.00000000
Si      -1.47737268       1.46466648      -1.53188988       0.00000000
Si       2.80601766       0.50996388       2.30660970       0.00000000
Si       2.67590400      -2.55569466      -0.22539930       0.00000000
Si      -0.30720768      -2.72331876       2.51321034       0.00000000
Si      -2.83487268       0.10716648       2.54061012       0.00000000
Si       2.65597590       2.77543590      -0.27871104       0.00000000
Si      -2.83487268      -2.60783352      -0.17438988       0.00000000
