10
Lattice="10.86 0.0 0.0 0.0 10.86 0.0 0.0 0.0 10.86" Properties=species:S:1:pos:R:3:initial_magmoms:R:1 pbc="T T T"
Si       1.20531882       1.34016744       1.31996784       0.00000000
Si      -1.50968118      -1.37483256       1.31996784       0.00000000
Si      -1.50968118       1.34016744      -1.39503216       0.00000000
Si       2.56281882      -0.01733256       2.67746784       0.00000000
Si       2.58664566       2.68893600      -0.02618346       0.00000000
Si       2.56956288      -2.70993924      -0.01168536       0.00000000
Si      -0.15218118       2.69766744       2.67746784       0.00000000
Si      -0.15218118      -2.73233256       2.67746784       0.00000000
Si      -0.17611662       2.78304876      -2.74532112       0.00000000
Si      -2.86718118      -0.01733256       2.67746784       0.00000000
