10
Lattice="16.28999089631971 0.0 0.0 0.0 16.28999089631971 0.0 0.0 0.0 34.51007289658418" Properties=species:S:1:pos:R:3:initial_magmoms:R:1 pbc="T T T"
Si       1.35389285      -1.35612621       1.35955959       0.00000000
Si       1.34477045       1.35692442      -1.36870477       0.00000000
Si      -1.36041678       1.35786924       1.35741997       0.00000000
Si      -1.37213181      -1.35840681      -1.36491211       0.00000000
Si       2.70679364      -2.70713899      -0.00417572       0.00000000
Si      -2.71491651      -2.70913288      -0.00037961       0.00000000
Si       2.71104533       0.00161271       2.71528856       0.00000000
Si       2.71120823       2.71593396      -0.00217414       0.00000000
Si      -0.00374507      -2.71245930       2.71549562       0.00000000
Si      -0.00298759       2.71603170       2.71508150       0.00000000
