10
Lattice="16.28999089631971 0.0 0.0 0.0 16.28999089631971 0.0 0.0 0.0 34.51007289658418" Properties=species:S:1:pos:R:3:initial_magmoms:R:1 pbc="T T T"
Si      -1.38942022       1.30129407      -1.34865440       0.00000000
Si       1.34317419      -1.43941698      -1.34620419       0.00000000
Si       1.30459459       1.43166294       1.41957264       0.00000000
Si      -1.55939008      -0.98790705       1.57448845       0.00000000
Si       2.16467401      -0.33218568       2.79096920       0.00000000
Si      -0.05450359      -1.27775502       3.54108056       0.00000000
Si      -0.02459119       2.64689694      -2.71960232       0.00000000
Si      -2.86250863       2.49219081       0.20902763       0.00000000
Si      -2.56348939      -2.81751840       0.30655315       0.00000000
Si       2.69620042      -0.07224615      -2.71525405       0.00000000
