10
Lattice="16.28999089631971 0.0 0.0 0.0 16.28999089631971 0.0 0.0 0.0 34.51007289658418" Properties=species:S:1:pos:R:3:initial_magmoms:R:1 pbc="T T T"
Si      -1.73683395      -0.25269048       1.48821322       0.00000000
Si       1.40978221       1.76402781       0.60095875       0.00000000
Si      -0.95321979       0.33171327      -2.11087881       0.00000000
Si       0.89167713      -2.07759402      -0.60665291       0.00000000
Si       2.58981352       2.19426300      -1.39721010       0.00000000
Si       0.69255958      -0.37154232      -3.62773540       0.00000000
Si       2.18367124      -1.81131768      -2.51198961       0.00000000
Si      -3.25154331       1.59241266       1.30348069       0.00000000
Si      -2.66370237      -1.18649844      -2.52696699       0.00000000
Si      -3.26956005      -1.94395086       0.95934605       0.00000000
