10
Lattice="16.28999089631971 0.0 0.0 0.0 16.28999089631971 0.0 0.0 0.0 34.51007289658418" Properties=species:S:1:pos:R:3:initial_magmoms:R:1 pbc="T T T"
Si       0.62240832      -1.22567589       1.92911415       0.00000000
Si       0.22620294       2.16386586       0.94505887       0.00000000
Si      -2.05338708      -0.51111504      -1.11467598       0.00000000
Si       1.94849577      -0.66666825      -1.27152435       0.00000000
Si       2.81228931      -0.32187411       2.05635286       0.00000000
Si      -1.37158542      -2.35742364      -2.33833483       0.00000000
Si       0.07690509      -3.43390431       1.19712059       0.00000000
Si       1.77660369       1.26744345      -3.00372391       0.00000000
Si       2.10893598       1.94548212       2.36080090       0.00000000
Si      -1.65226212       2.50758486       2.35103454       0.00000000
