10
Lattice="16.28999089631971 0.0 0.0 0.0 16.28999089631971 0.0 0.0 0.0 34.51007289658418" Properties=species:S:1:pos:R:3:initial_magmoms:R:1 pbc="T T T"
Si       1.82599497       0.94721463      -1.09514327       0.00000000
Si       0.16478964      -1.42847824       1.88766753       0.00000000
Si      -1.07118153      -1.77323085      -1.18345459       0.00000000
Si      -1.01934675       1.69818363       1.35541838       0.00000000
Si      -1.70978211      -0.09321138       2.66310930       0.00000000
Si       0.29936133       2.22110892      -2.52796778       0.00000000
Si      -2.43664680      -0.48870326      -2.55288407       0.00000000
Si       2.29734612      -0.55006443       2.69931039       0.00000000
Si       0.73945197       2.99605680       2.25941025       0.00000000
Si      -2.45531025      -3.06949931       0.22252107       0.00000000
