10
Lattice="16.28999089631971 0.0 0.0 0.0 16.28999089631971 0.0 0.0 0.0 34.51007289658418" Properties=species:S:1:pos:R:3:initial_magmoms:R:1 pbc="T T T"
Si      -2.06145063       0.40579530       0.91969396       0.00000000
Si      -0.65661732      -0.64845181      -2.14449164       0.00000000
Si       0.85639788       2.18746518      -0.40721909       0.00000000
Si       0.95417046      -1.95945472       1.01231904       0.00000000
Si       2.04325470       2.01892884       1.60026748       0.00000000
Si      -1.17253791      -2.91250117       1.54480977       0.00000000
Si       1.36620972      -0.31891910      -3.24422475       0.00000000
Si      -3.01957956      -1.71314992       0.68074608       0.00000000
Si      -3.09829284       1.75441182      -0.60975882       0.00000000
Si       1.91171295       1.88930931      -2.51223118       0.00000000
