10
Lattice="16.28999089631971 0.0 0.0 0.0 16.28999089631971 0.0 0.0 0.0 34.51007289658418" Properties=species:S:1:pos:R:3:initial_magmoms:R:1 pbc="T T T"
Si      -0.97334379       1.60428807       1.48317474       0.00000000
Si      -1.19209635      -1.92763968      -0.84435843       0.00000000
Si       2.35507462       0.39097629       0.51237134       0.00000000
Si       0.88325683      -0.94345164      -2.25112782       0.00000000
Si       0.42974812      -2.83666634       1.82144267       0.00000000
Si       2.38200199      -1.45842415       1.93874247       0.00000000
Si      -0.57052793       3.53106927       0.09952711       0.00000000
Si       0.04648840      -3.82708205      -0.27639133       0.00000000
Si      -1.55989197      -1.98517433       2.96928284       0.00000000
Si      -3.28803291       1.38790800       1.63457052       0.00000000
