10
Lattice="16.28999089631971 0.0 0.0 0.0 16.28999089631971 0.0 0.0 0.0 34.51007289658418" Properties=species:S:1:pos:R:3:initial_magmoms:R:1 pbc="T T T"
Si       0.62908722      -1.07970120       2.00027396       0.00000000
Si       1.87846506      -0.34371900      -1.40597567       0.00000000
Si      -2.05630299      -1.04150115      -0.60040658       0.00000000
Si      -0.09542682       2.31896295       0.73986187       0.00000000
Si       2.84705217      -0.18901287       2.12985936       0.00000000
Si      -2.92309389       0.66095046      -1.97525415       0.00000000
Si      -2.87779140      -1.37603259       1.69976008       0.00000000
Si      -2.34817092       2.89476558       0.72302094       0.00000000
Si       3.76119810      -0.56210274       0.00976636       0.00000000
Si       1.65226212      -2.50758486      -2.35103454       0.00000000
