10
Lattice="16.28999089631971 0.0 0.0 0.0 16.28999089631971 0.0 0.0 0.0 34.51007289658418" Properties=species:S:1:pos:R:3:initial_magmoms:R:1 pbc="T T T"
Si       1.26783441      -1.33763706       1.49327239       0.00000000
Si      -2.00195955      -0.82233549      -1.01114363       0.00000000
Si      -1.40066307       1.38696318       1.47913016       0.00000000
Si       1.98819450       0.82199340      -1.23369925       0.00000000
Si       2.58173694      -2.69347005       0.10445860       0.00000000
Si      -2.58159033       2.88274356       0.05964379       0.00000000
Si       2.64357378       0.02523321       2.85030930       0.00000000
Si       2.80342755       2.72745099      -0.02157916       0.00000000
Si      -2.81391831      -2.71700910       0.13788852       0.00000000
Si      -0.06968862      -2.68921836       2.85659014       0.00000000
