10
Lattice="16.28999089631971 0.0 0.0 0.0 16.28999089631971 0.0 0.0 0.0 34.51007289658418" Properties=species:S:1:pos:R:3:initial_magmoms:R:1 pbc="T T T"
Si       1.61627751      -1.35439947       0.97546227       0.00000000
Si      -1.05524991       1.55245329       1.37705621       0.00000000
Si       0.41575338       1.17592623      -2.00727951       0.00000000
Si      -2.01673458      -1.25222859       0.23283959       0.00000000
Si      -1.22852664      -0.21809052       2.87938405       0.00000000
Si       0.53514279       3.28408029      -0.81302326       0.00000000
Si       0.32887881      -2.07943479       2.74579548       0.00000000
Si      -2.65826736       2.30721786      -0.19788087       0.00000000
Si       2.36825649      -2.59636536      -0.89802162       0.00000000
Si      -3.59645733       0.22983561      -0.64475205       0.00000000
