10
Lattice="16.28999089631971 0.0 0.0 0.0 16.28999089631971 0.0 0.0 0.0 34.51007289658418" Properties=species:S:1:pos:R:3:initial_magmoms:R:1 pbc="T T T"
Si       0.67257614       0.08822664      -2.24795289       0.00000000
Si      -2.34515191      -0.13310559      -0.21679240       0.00000000
Si       0.76862687       2.04364566       0.90899583       0.00000000
Si       0.95577291      -1.57637516       1.50581336       0.00000000
Si       2.90135928       2.37143304      -0.10784404       0.00000000
Si      -3.20550826      -0.21743892       1.96900782       0.00000000
Si       0.54596701       2.31645429      -2.92852642       0.00000000
Si      -0.79885624       3.70760400       0.41201599       0.00000000
Si       3.01395576      -0.54832792       2.28405045       0.00000000
Si      -2.94131704      -2.34855278      -0.81029696       0.00000000
