10
Lattice="16.28999089631971 0.0 0.0 0.0 16.28999089631971 0.0 0.0 0.0 34.51007289658418" Properties=species:S:1:pos:R:3:initial_magmoms:R:1 pbc="T T T"
Si       1.35692442      -1.35700587      -1.36173373       0.00000000
Si      -1.35811359       1.35879777      -1.36138863       0.00000000
Si      -1.36871838      -1.36614456       1.36773848       0.00000000
Si       1.37357280       1.36663326       1.37277696       0.00000000
Si      -2.71591767      -2.71303434      -0.00355454       0.00000000
Si       2.71474479       2.71622718      -0.00379611       0.00000000
Si      -0.00019548      -2.71422351      -2.71946428       0.00000000
Si       2.71985985      -2.71420722      -0.00027608       0.00000000
Si      -2.71761183       2.71687878      -0.00486592       0.00000000
Si       2.71507059       0.00055386      -2.71942977       0.00000000
