10
Lattice="16.28999089631971 0.0 0.0 0.0 16.28999089631971 0.0 0.0 0.0 34.51007289658418" Properties=species:S:1:pos:R:3:initial_magmoms:R:1 pbc="T T T"
Si      -1.30929246      -0.38296161       1.93235810       0.00000000
Si       1.90115703       1.12497111       0.87372651       0.00000000
Si      -1.35728280       1.69416000      -1.03889182       0.00000000
Si       0.43152210      -2.10333222      -1.11909327       0.00000000
Si      -1.13621121       1.59702273       3.15505067       0.00000000
Si      -3.38939514      -1.20920670       1.17620747       0.00000000
Si       0.99049716       2.55006918       2.62255995       0.00000000
Si       3.14698365      -0.47004795       2.17927781       0.00000000
Si      -0.42205761      -3.83893398       0.25979197       0.00000000
Si      -0.91163727      -2.31537915      -3.04817291       0.00000000
