10
Lattice="16.28999089631971 0.0 0.0 0.0 16.28999089631971 0.0 0.0 0.0 34.51007289658418" Properties=species:S:1:pos:R:3:initial_magmoms:R:1 pbc="T T T"
Si      -0.95577291       1.57637516      -1.50581336       0.00000000
Si       0.88362499      -1.97200128      -1.02243050       0.00000000
Si      -1.37748307      -0.51601737       1.91016811       0.00000000
Si       2.05818286       1.02804724       0.77823709       0.00000000
Si      -0.18714604       3.62002081      -0.59681753       0.00000000
Si       3.59351536      -0.67192896       1.28802017       0.00000000
Si       3.17974936       2.02290035      -0.99768676       0.00000000
Si       2.95486591      -2.60143059       0.05569929       0.00000000
Si       2.06365630      -1.54176609      -3.02059935       0.00000000
Si      -3.30092482       1.44326956      -1.72260576       0.00000000
