10
Lattice="16.28999089631971 0.0 0.0 0.0 16.28999089631971 0.0 0.0 0.0 34.51007289658418" Properties=species:S:1:pos:R:3:initial_magmoms:R:1 pbc="T T T"
Si       1.21573899       1.31249345       1.53821834       0.00000000
Si      -1.44267498      -1.63610148       0.91658805       0.00000000
Si       1.40304141      -1.35185727      -1.40956472       0.00000000
Si      -1.55131299       1.78501747      -0.50253596       0.00000000
Si       1.47535272       3.26366077       0.24733383       0.00000000
Si      -2.64039723      -2.19336609      -1.09048440       0.00000000
Si      -2.85951402      -0.38312777       2.37967792       0.00000000
Si      -3.21053094       1.65295444       1.22265806       0.00000000
Si       0.15739398       1.63423723       3.60468266       0.00000000
Si       3.71509740      -1.17747282      -0.71756835       0.00000000
