10
Lattice="16.28999089631971 0.0 0.0 0.0 16.28999089631971 0.0 0.0 0.0 34.51007289658418" Properties=species:S:1:pos:R:3:initial_magmoms:R:1 pbc="T T T"
Si       0.82736910       1.01556747      -2.04603435       0.00000000
Si       0.58981203       2.16880173       1.05455940       0.00000000
Si       0.17189208      -1.93411170       1.73219957       0.00000000
Si      -1.79703135      -1.25494902      -1.87072308       0.00000000
Si       2.71305063      -0.52701408      -1.79569814       0.00000000
Si      -1.11889494       0.43010487      -3.31041510       0.00000000
Si      -0.28595466      -3.11683086      -1.96610897       0.00000000
Si      -1.77660369      -1.26744345       3.00372391       0.00000000
Si      -0.59733801      -3.74515082       0.27438974       0.00000000
Si      -1.12060539       2.79487530       2.57428033       0.00000000
