10
Lattice="16.28999089631971 0.0 0.0 0.0 16.28999089631971 0.0 0.0 0.0 34.51007289658418" Properties=species:S:1:pos:R:3:initial_magmoms:R:1 pbc="T T T"
Si       1.35672894       1.35747828       1.35610858       0.00000000
Si       1.35676152      -1.35669636      -1.35790311       0.00000000
Si      -1.35731538      -1.35832536       1.35597054       0.00000000
Si      -1.35796698       1.35817875      -1.35779958       0.00000000
Si      -0.00276930      -2.71091664       2.71404620       0.00000000
Si       2.71308321       0.00063531      -2.71525405       0.00000000
Si       2.71140534      -0.00019548       2.71729015       0.00000000
Si      -2.71181259      -0.00415395       2.71694505       0.00000000
Si       2.71472850      -2.71425609      -0.00024157       0.00000000
Si      -2.71492398      -2.71459818      -0.00034510       0.00000000
