10
Lattice="16.28999089631971 0.0 0.0 0.0 16.28999089631971 0.0 0.0 0.0 34.51007289658418" Properties=species:S:1:pos:R:3:initial_magmoms:R:1 pbc="T T T"
Si       1.35557235      -1.35764118      -1.35548740       0.00000000
Si       1.35524655       1.35783666       1.35807566       0.00000000
Si      -1.36011726      -1.35731538       1.35800664       0.00000000
Si      -1.36283769       1.35957969      -1.36038783       0.00000000
Si       2.71093293      -2.71485882       0.00055216       0.00000000
Si       2.71269225       0.00045612       2.71566817       0.00000000
Si       2.71228500       2.71679733       0.00162197       0.00000000
Si      -0.00223173       2.71518462       2.71525405       0.00000000
Si      -0.00215028      -2.71549413       2.71580621       0.00000000
Si      -2.71858923      -2.71355562       0.00055216       0.00000000
