10
Lattice="16.28999089631971 0.0 0.0 0.0 16.28999089631971 0.0 0.0 0.0 34.51007289658418" Properties=species:S:1:pos:R:3:initial_magmoms:R:1 pbc="T T T"
Si       2.05913745       0.75251655       0.77713277       0.00000000
Si      -0.88993899       2.28652956       0.16540687       0.00000000
Si      -0.77081022      -1.97175789       1.28484524       0.00000000
Si       2.33662131      -0.14998203      -1.39883208       0.00000000
Si       0.34598331      -0.95420304      -2.73571854       0.00000000
Si       1.37647242       3.14877555       0.64019672       0.00000000
Si      -0.53325315      -3.12499215      -1.81574850       0.00000000
Si       1.16308971      -2.41409655       2.76436191       0.00000000
Si       2.86814772      -0.77051700       2.49545928       0.00000000
Si      -2.48122764      -1.34568432       2.80456617       0.00000000
