10
Lattice="16.28999089631971 0.0 0.0 0.0 16.28999089631971 0.0 0.0 0.0 34.51007289658418" Properties=species:S:1:pos:R:3:initial_magmoms:R:1 pbc="T T T"
Si       1.83731652       1.33035543       0.51119800       0.00000000
Si       0.64453014      -1.43379693      -1.78337803       0.00000000
Si      -0.51015393      -0.63677610       2.23935988       0.00000000
Si      -1.99589967       1.10350089      -0.84025172       0.00000000
Si      -3.47247414      -0.42557625       0.23767100       0.00000000
Si      -2.72236851       0.08343738       2.41018484       0.00000000
Si      -1.62764793       0.98833059      -3.17886263       0.00000000
Si      -1.09162548      -1.35635427      -3.29457497       0.00000000
Si       1.49864742       2.29892625       2.54908796       0.00000000
Si       2.10450510       3.05637867      -0.93722508       0.00000000
