10
Lattice="16.28999089631971 0.0 0.0 0.0 16.28999089631971 0.0 0.0 0.0 34.51007289658418" Properties=species:S:1:pos:R:3:initial_magmoms:R:1 pbc="T T T"
Si       1.36032903      -1.27855323       1.49028727       0.00000000
Si       1.83545946       1.04803344      -1.17927746       0.00000000
Si      -1.02039257      -1.72996542      -1.38455667       0.00000000
Si      -1.34122492       1.43360145       1.46521224       0.00000000
Si       2.55397878      -2.62720233      -0.03120057       0.00000000
Si       3.56539230      -0.74785761      -1.09452174       0.00000000
Si      -2.70758438      -2.69239491       0.03647027       0.00000000
Si       0.66964932      -3.54283065      -1.29973086       0.00000000
Si      -2.61012131       2.84610735      -0.04171235       0.00000000
Si       2.69702127       2.77068465       0.14322378       0.00000000
