10
Lattice="16.28999089631971 0.0 0.0 0.0 16.28999089631971 0.0 0.0 0.0 34.51007289658418" Properties=species:S:1:pos:R:3:initial_magmoms:R:1 pbc="T T T"
Si       1.34117199       1.34959392      -1.37657307       0.00000000
Si      -1.40366043       1.31124726       1.38771983       0.00000000
Si      -1.37357280      -1.36663326      -1.37277696       0.00000000
Si       1.29479436      -1.45606536       1.45325449       0.00000000
Si      -2.02588956      -0.54538920       2.75890932       0.00000000
Si      -0.53028837      -2.43809172       2.57804193       0.00000000
Si       2.69653257       2.68928582       0.01062911       0.00000000
Si       2.69786835      -0.00798210      -2.73489030       0.00000000
Si      -2.74134636       2.69449373      -0.01049107       0.00000000
Si      -0.01713708       2.70557908      -2.73551148       0.00000000
