10
Lattice="16.28999089631971 0.0 0.0 0.0 16.28999089631971 0.0 0.0 0.0 34.51007289658418" Properties=species:S:1:pos:R:3:initial_magmoms:R:1 pbc="T T T"
Si       2.27711394      -0.70545474      -0.13320896       0.00000000
Si      -0.39881178       1.06249896       2.19284028       0.00000000
Si      -1.18752471      -2.01064212      -0.87714301       0.00000000
Si      -0.89671563       1.31447268      -2.01045444       0.00000000
Si      -2.73069270       2.04634980      -0.72015660       0.00000000
Si      -1.96006167       2.72657363       1.44535168       0.00000000
Si       0.21032019      -2.43498033      -2.82037179       0.00000000
Si       2.47673160      -1.57273434      -2.34558195       0.00000000
Si       2.51012610      -2.31280533       1.63129206       0.00000000
Si      -0.97368588      -3.86522604       0.69189284       0.00000000
