10
Lattice="16.28999089631971 0.0 0.0 0.0 16.28999089631971 0.0 0.0 0.0 34.51007289658418" Properties=species:S:1:pos:R:3:initial_magmoms:R:1 pbc="T T T"
Si       1.44267498       1.63610148      -0.91658805       0.00000000
Si       0.79992045      -1.47056346       1.70041577       0.00000000
Si      -1.41683904       1.25297371       1.46308987       0.00000000
Si      -1.19772225      -0.55726461      -2.00707245       0.00000000
Si      -1.48282983      -1.95496290       1.90875320       0.00000000
Si       2.84571639       0.28424421      -2.32615276       0.00000000
Si      -0.10863801       3.42111896      -1.41912401       0.00000000
Si       0.02098152       1.63791782       3.35617548       0.00000000
Si      -1.76785596       3.28905593       0.30607001       0.00000000
Si       1.40300883      -0.30659409       3.63743274       0.00000000
