10
Lattice="16.28999089631971 0.0 0.0 0.0 16.28999089631971 0.0 0.0 0.0 34.51007289658418" Properties=species:S:1:pos:R:3:initial_magmoms:R:1 pbc="T T T"
Si      -1.36684503       1.36778708      -1.27177972       0.00000000
Si      -1.35555606      -1.33058041       1.35436582       0.00000000
Si       1.25503047      -1.43744281      -1.38048651       0.00000000
Si       1.36361961       1.38883865       1.34977598       0.00000000
Si       0.19702755       2.19241620      -2.73489827       0.00000000
Si       1.96164180       0.44809929      -3.17927472       0.00000000
Si      -2.69096139      -2.67211078      -0.00606342       0.00000000
Si       0.00262269      -2.68639711       2.70881792       0.00000000
Si       2.73362490      -2.67800776      -0.01688234       0.00000000
Si      -2.71107954       0.02539232       2.70864537       0.00000000
