10
Lattice="16.28999089631971 0.0 0.0 0.0 16.28999089631971 0.0 0.0 0.0 34.51007289658418" Properties=species:S:1:pos:R:3:initial_magmoms:R:1 pbc="T T T"
Si       1.34674317       1.35312885      -1.38644295       0.00000000
Si      -1.36331010      -1.36485765      -1.38523510       0.00000000
Si       1.52663364      -1.27389429       1.43282452       0.00000000
Si      -1.37525067       1.44635652       1.43561983       0.00000000
Si      -0.29936133      -2.22110892       2.52796778       0.00000000
Si       2.69962767       2.72647359      -0.02698689       0.00000000
Si      -2.71254238       2.71554300      -0.02712493       0.00000000
Si       0.31718259       2.47940316       2.91606828       0.00000000
Si       2.69900865      -2.73291791      -0.02156881       0.00000000
Si      -2.73600813      -2.70981218      -0.02491629       0.00000000
