10
Lattice="16.28999089631971 0.0 0.0 0.0 16.28999089631971 0.0 0.0 0.0 34.51007289658418" Properties=species:S:1:pos:R:3:initial_magmoms:R:1 pbc="T T T"
Si      -1.37262798      -1.33724610       1.34799871       0.00000000
Si      -1.35467640       1.35767376      -1.36118157       0.00000000
Si       1.36130643      -1.35518139      -1.36011175       0.00000000
Si       1.36733373       1.37867157       1.37453697       0.00000000
Si      -0.05740596      -2.68954416       2.66894151       0.00000000
Si      -2.70669753       2.71611315       0.00131138       0.00000000
Si      -2.71417464      -2.71072116      -0.00324395       0.00000000
Si      -2.71140534       0.00019548      -2.71729015       0.00000000
Si       0.00332316      -2.71406061      -2.71753172       0.00000000
Si       2.71414977       2.71808424      -0.00251924       0.00000000
