10
Lattice="16.28999089631971 0.0 0.0 0.0 16.28999089631971 0.0 0.0 0.0 34.51007289658418" Properties=species:S:1:pos:R:3:initial_magmoms:R:1 pbc="T T T"
Si       1.34681604       1.33941267      -1.37705621       0.00000000
Si       1.43726704      -1.29293730       1.35755801       0.00000000
Si      -1.36733373      -1.37867157      -1.37453697       0.00000000
Si      -1.19343798       1.30590414       1.64837455       0.00000000
Si      -0.32511582      -2.39705721       2.53283371       0.00000000
Si      -2.01725586      -0.60002586       2.94367635       0.00000000
Si      -2.71891503       2.67395463       0.01863545       0.00000000
Si       2.71322560       2.68400556      -0.00438278       0.00000000
Si      -0.00581553       2.69423568      -2.73478677       0.00000000
Si       2.70937628      -0.01873350      -2.73502834       0.00000000
