10
Lattice="16.28999089631971 0.0 0.0 0.0 16.28999089631971 0.0 0.0 0.0 34.51007289658418" Properties=species:S:1:pos:R:3:initial_magmoms:R:1 pbc="T T T"
Si       0.59616513       2.21544719       0.59350457       0.00000000
Si       1.30065876      -0.62535681      -1.91037517       0.00000000
Si      -2.31205599      -0.17438445      -0.69199637       0.00000000
Si       0.11938941      -1.37143881       1.99620177       0.00000000
Si      -0.26419122       2.13111386       2.77930478       0.00000000
Si      -2.44770282      -2.53957842      -0.52006709       0.00000000
Si      -0.38789748      -1.18087839      -3.45639279       0.00000000
Si      -1.40680440      -3.10432014       1.48855832       0.00000000
Si      -0.81748107       3.65256728      -0.79328349       0.00000000
Si      -2.35436112       0.11134215      -3.03557673       0.00000000
