10
Lattice="16.28999089631971 0.0 0.0 0.0 16.28999089631971 0.0 0.0 0.0 34.51007289658418" Properties=species:S:1:pos:R:3:initial_magmoms:R:1 pbc="T T T"
Si      -2.31468912      -0.21638007       0.15139577       0.00000000
Si       0.97334379      -1.60428807      -1.48317474       0.00000000
Si       0.45296788      -0.04070871       2.34858432       0.00000000
Si       0.40281586       1.92678120      -1.38364764       0.00000000
Si      -2.56581576      -2.53133568       0.47523848       0.00000000
Si       3.52674916       0.81891459       0.39086130       0.00000000
Si       3.32841841      -1.21331178      -0.97080340       0.00000000
Si      -0.18406218       3.70939590       0.13103482       0.00000000
Si      -1.06075008       1.42521210       3.31914616       0.00000000
Si       2.65995826       2.52136620      -0.98398626       0.00000000
