10
Lattice="16.28999089631971 0.0 0.0 0.0 16.28999089631971 0.0 0.0 0.0 34.51007289658418" Properties=species:S:1:pos:R:3:initial_magmoms:R:1 pbc="T T T"
Si       1.39525479      -1.54922787       0.91085937       0.00000000
Si      -2.21618119      -0.00861741       0.73427123       0.00000000
Si       0.47674314       2.16702612       0.72892217       0.00000000
Si      -0.04323366      -0.51523641      -2.28001277       0.00000000
Si      -2.80972268       1.43233083      -1.02601955       0.00000000
Si      -1.15491376       3.08729709      -0.63277705       0.00000000
Si       0.42515271      -3.44126250      -0.01639229       0.00000000
Si      -2.30167926      -0.12768102      -2.71321796       0.00000000
Si       1.29412647      -1.05399558       3.18652387       0.00000000
Si       3.37527171      -1.33019253      -0.25951589       0.00000000
