10
Lattice="16.28999089631971 0.0 0.0 0.0 16.28999089631971 0.0 0.0 0.0 34.51007289658418" Properties=species:S:1:pos:R:3:initial_magmoms:R:1 pbc="T T T"
Si      -1.35664749      -1.35619137       1.35748899       0.00000000
Si       1.35759231       1.35578412       1.35728193       0.00000000
Si      -1.35739357       1.35671265      -1.35700584       0.00000000
Si       1.35755973      -1.35775521      -1.35735095       0.00000000
Si       0.00024435      -2.71471221      -2.71390816       0.00000000
Si       2.71443528       2.71458189       0.00024157       0.00000000
Si       2.71448415      -2.71529865       0.00000000       0.00000000
Si      -2.71569706      -0.00148239      -2.71439130       0.00000000
Si       2.71415835       0.00115659       2.71601327       0.00000000
Si      -2.71510409      -2.71510317       0.00055216       0.00000000
