10
Lattice="16.28999089631971 0.0 0.0 0.0 16.28999089631971 0.0 0.0 0.0 34.51007289658418" Properties=species:S:1:pos:R:3:initial_magmoms:R:1 pbc="T T T"
Si      -1.34877616      -1.35088083       1.35869684       0.00000000
Si       1.35891180      -1.35606105      -1.36035332       0.00000000
Si      -1.35617508       1.35913986      -1.36011175       0.00000000
Si       1.35762489       1.35819504       1.38150801       0.00000000
Si      -2.62828431       0.08493606       2.73247459       0.00000000
Si       2.71050939      -2.71329498      -0.00062118       0.00000000
Si      -2.71508782      -2.71580364       0.00213963       0.00000000
Si       2.71463076       2.71648782      -0.00158746       0.00000000
Si      -2.71463168       0.00022806      -2.71704858       0.00000000
Si       0.00053757      -2.71438641      -2.71735917       0.00000000
