10
Lattice="16.28999089631971 0.0 0.0 0.0 16.28999089631971 0.0 0.0 0.0 34.51007289658418" Properties=species:S:1:pos:R:3:initial_magmoms:R:1 pbc="T T T"
Si       1.17886820       1.44003600      -1.53504341       0.00000000
Si      -1.41069478      -1.16897040      -1.65296440       0.00000000
Si      -1.01207489       0.57309849       2.26234360       0.00000000
Si       2.08708457      -0.91890261       1.19094328       0.00000000
Si       2.42852297       2.87616240      -0.20474838       0.00000000
Si       3.45897950       1.16745543       1.09583347       0.00000000
Si      -1.53241400       2.96963442       1.87237956       0.00000000
Si      -3.17307764      -2.27309031      -0.47768870       0.00000000
Si       2.57521442       0.10428858      -3.00393097       0.00000000
Si      -0.13118663      -2.60478729      -3.02674214       0.00000000
