10
Lattice="16.28999089631971 0.0 0.0 0.0 16.28999089631971 0.0 0.0 0.0 34.51007289658418" Properties=species:S:1:pos:R:3:initial_magmoms:R:1 pbc="T T T"
Si      -2.16284122       0.66244914      -0.54550103       0.00000000
Si       0.23602581      -0.09112626       2.31700759       0.00000000
Si      -0.33889716      -2.32494138      -0.38126750       0.00000000
Si       1.99919025       0.85662594      -0.97411637       0.00000000
Si       1.02672612      -2.37144933      -2.26244713       0.00000000
Si      -3.18291760      -1.13691168       0.73375358       0.00000000
Si       2.48876991      -0.66692889       2.33384851       0.00000000
Si       3.34234962       1.06867287       0.95496327       0.00000000
Si       2.88266211      -0.83206062      -2.33878346       0.00000000
Si      -0.47856762       1.96279839       3.25026401       0.00000000
