10
Lattice="16.28999089631971 0.0 0.0 0.0 16.28999089631971 0.0 0.0 0.0 34.51007289658418" Properties=species:S:1:pos:R:3:initial_magmoms:R:1 pbc="T T T"
Si      -1.63165690       0.92027097      -1.36169922       0.00000000
Si      -0.47674314      -2.16702612      -0.72892217       0.00000000
Si      -0.37647819       0.49388022       2.26341342       0.00000000
Si       2.20628502       0.49647033      -0.77803003       0.00000000
Si      -2.69292433      -2.17564353       0.00534906       0.00000000
Si      -0.33966279       1.18654731      -3.26703592       0.00000000
Si       1.20324456      -0.98818398       3.14100506       0.00000000
Si       1.74043989       2.01279240      -2.51088529       0.00000000
Si       0.56171178       2.57126247       2.71028460       0.00000000
Si      -3.28646582      -0.73469529      -1.75494172       0.00000000
