10
Lattice="16.290000149 0.0 0.0 0.0 16.290000149 0.0 0.0 0.0 29.1751946751" Properties=species:S:1:pos:R:3:initial_magmoms:R:1 pbc="T T T"
Si       1.08017362      -1.42227991      -1.49756274       0.00000000
Si      -1.54750114       1.32154255      -1.18635094       0.00000000
Si      -1.05376753      -1.76344139       1.18069095       0.00000000
Si       2.12665952       0.97107949       0.67908183       0.00000000
Si       0.21655926       0.80454682       3.38823206       0.00000000
Si       2.37216611      -2.71611317      -0.06940779       0.00000000
Si      -0.20445579       2.70062138      -2.49952645       0.00000000
Si       2.49486239      -0.09721872      -2.73730429       0.00000000
Si      -1.40330206      -0.88321123       3.31567335       0.00000000
H        3.20456883      -1.77543083       0.74574715       0.00000000
