10
Lattice="16.290000149 0.0 0.0 0.0 16.290000149 0.0 0.0 0.0 29.1751946751" Properties=species:S:1:pos:R:3:initial_magmoms:R:1 pbc="T T T"
Si       1.31220838       1.35982405       1.34544328       0.00000000
Si      -1.37508778       1.26442981      -1.41733387       0.00000000
Si       1.28725210      -1.44915841      -1.32804611       0.00000000
Si      -1.42718320      -1.39075876       1.28137455       0.00000000
Si      -2.18484740      -0.59502484      -2.59840673       0.00000000
Si      -0.55180747      -2.33043113      -2.51439997       0.00000000
Si       2.62096328       2.64951965      -0.12493985       0.00000000
Si       2.62915715      -0.03157002       2.68732718       0.00000000
Si      -0.10665063       2.69050529       2.64747387       0.00000000
Si       2.53676027      -2.81953839       0.08524700       0.00000000
