10
Lattice="16.290000149 0.0 0.0 0.0 16.290000149 0.0 0.0 0.0 29.1751946751" Properties=species:S:1:pos:R:3:initial_magmoms:R:1 pbc="T T T"
Si      -2.30729933      -0.08688272       0.35856314       0.00000000
H       -0.90678286       1.56996505      -1.49105667       0.00000000
Si       0.97606423      -0.40015734      -2.15248751       0.00000000
Si       1.02340297       2.15024744       0.39141441       0.00000000
Si       0.06040332      -2.06448059       1.29152752       0.00000000
H       -2.92113912       1.21891555      -0.07929818       0.00000000
Si       2.84296341       1.26301258       1.53954585       0.00000000
Si       2.89201260      -1.46365163      -1.37380157       0.00000000
Si       3.53330103      -0.78535720       0.77165472       0.00000000
Si      -3.14864526      -1.74076571      -1.04426774       0.00000000
