10
Lattice="16.290000149 0.0 0.0 0.0 16.290000149 0.0 0.0 0.0 29.1751946751" Properties=species:S:1:pos:R:3:initial_magmoms:R:1 pbc="T T T"
Si      -1.34096023       1.35545833       1.34431507       0.00000000
Si       1.39862683      -1.42462567       1.22527065       0.00000000
Si       1.39489642       1.23207787      -1.42605434       0.00000000
Si      -1.50511456      -1.28425474      -1.28554660       0.00000000
H        0.51162003       2.08378424      -2.31443902       0.00000000
Si       2.70780527       0.02181231       2.59480680       0.00000000
Si      -2.55645488       2.77039146      -0.10561420       0.00000000
Si      -2.66186747      -0.04777857       2.68766270       0.00000000
Si       2.42483168      -0.25671411      -2.89613405       0.00000000
Si       0.07268598      -2.80751637       2.60125160       0.00000000
