10
Lattice="16.290000149 0.0 0.0 0.0 16.290000149 0.0 0.0 0.0 29.1751946751" Properties=species:S:1:pos:R:3:initial_magmoms:R:1 pbc="T T T"
Si      -1.43329195       1.31981581      -1.28271661       0.00000000
Si      -1.37994220      -1.31802391       1.36329850       0.00000000
Si       1.33587775       1.40424688       1.33809113       0.00000000
Si       1.34615674      -1.27925371      -1.46062695       0.00000000
Si      -0.07773588       2.66035250      -2.59823197       0.00000000
Si       2.68548797      -2.61562016      -0.03854043       0.00000000
Si      -0.02445129      -2.68833872       2.70261498       0.00000000
Si      -2.75359647      -2.64448604      -0.00026258       0.00000000
Si       2.69840594       0.06499710       2.70279003       0.00000000
Si      -2.74874205       0.06126669       2.68566420       0.00000000
