10
Lattice="16.290000149 0.0 0.0 0.0 16.290000149 0.0 0.0 0.0 29.1751946751" Properties=species:S:1:pos:R:3:initial_magmoms:R:1 pbc="T T T"
Si      -1.31313528       0.26277399       1.91292999       0.00000000
Si       2.21140010      -0.07890876       0.80438929       0.00000000
Si      -1.28778316      -0.15353325      -2.02572129       0.00000000
Si      -0.54240813       2.37948032       0.73582758       0.00000000
Si      -0.51826635      -1.99865270       1.69306572       0.00000000
H        2.05708493       0.71622244       2.08045396       0.00000000
H       -2.42531224       0.81238231      -1.73592408       0.00000000
H        0.22605633      -1.62474832      -2.65450509       0.00000000
H        0.65368513       2.74567953       1.62675050       0.00000000
H        0.76346344      -1.95991508       2.51207179       0.00000000
