10
Lattice="16.290000149 0.0 0.0 0.0 16.290000149 0.0 0.0 0.0 29.1751946751" Properties=species:S:1:pos:R:3:initial_magmoms:R:1 pbc="T T T"
Si      -1.34726446      -1.35666379      -1.36227737       0.00000000
Si      -1.36971208       1.36339156       1.33619474       0.00000000
Si       1.35122293       1.37583712      -1.34669781       0.00000000
Si       1.34573320      -1.35881407       1.36957116       0.00000000
Si      -0.00394218       2.71852409       2.68277585       0.00000000
Si      -2.70754463      -2.70115895       0.01000709       0.00000000
Si      -2.69982317       0.01076769      -2.71839876       0.00000000
Si       0.03069036      -2.70542693      -2.71279713       0.00000000
Si       2.77008195       0.04515588      -2.64872840       0.00000000
Si       2.71673219      -2.70462872       0.03127581       0.00000000
