10
Lattice="16.290000149 0.0 0.0 0.0 16.290000149 0.0 0.0 0.0 29.1751946751" Properties=species:S:1:pos:R:3:initial_magmoms:R:1 pbc="T T T"
Si      -1.48258549       1.80291206      -0.11807201       0.00000000
Si       1.12788703      -1.11233008      -1.75389600       0.00000000
Si      -1.66265516      -1.52099731       0.73220986       0.00000000
Si       1.86018770       0.83869066       1.25584625       0.00000000
H       -0.75704518       0.55156312       2.50148119       0.00000000
H       -1.40304142       0.98130961       2.45535521       0.00000000
Si       2.47133963      -2.52340247      -0.38061959       0.00000000
H        1.35112519       3.18847431      -0.96852894       0.00000000
H        0.80184268       3.33179373       1.36598261       0.00000000
Si       2.54350433       2.69845481      -0.16443140       0.00000000
