10
Lattice="16.290000149 0.0 0.0 0.0 16.290000149 0.0 0.0 0.0 29.1751946751" Properties=species:S:1:pos:R:3:initial_magmoms:R:1 pbc="T T T"
Si       1.44604702      -1.19330767      -1.35632679       0.00000000
Si      -1.34502459      -1.46254879       1.23334518       0.00000000
Si      -1.35678108       1.24240573      -1.45736049       0.00000000
Si       1.42711804       1.35905842       1.27917941       0.00000000
Si      -2.70521516      -0.00410508       2.52030386       0.00000000
Si       0.08695602      -2.53863362      -2.69695616       0.00000000
Si       0.09730017       2.67322160       2.69882104       0.00000000
Si      -2.52782065       2.83371574      -0.17090946       0.00000000
Si       2.75612142      -0.03666879       2.64846466       0.00000000
Si       0.04056210      -2.80218954       2.60548959       0.00000000
