10
Lattice="16.290000149 0.0 0.0 0.0 16.290000149 0.0 0.0 0.0 29.1751946751" Properties=species:S:1:pos:R:3:initial_magmoms:R:1 pbc="T T T"
Si      -1.32981787       1.31416318       1.41964163       0.00000000
Si      -1.42711804      -1.35905842      -1.27917941       0.00000000
Si       1.32900337      -1.39572721       1.36928525       0.00000000
Si       1.33473745       1.36484626      -1.40901019       0.00000000
Si       0.01892898      -2.55236609      -2.63550620       0.00000000
Si       2.63287127       2.64824578       0.09740722       0.00000000
Si      -2.60866922       2.68750793       0.03233487       0.00000000
Si      -2.74165427      -0.07649784       2.67615892       0.00000000
Si       2.66621690      -0.07110585       2.77424592       0.00000000
Si       2.71098182      -2.75216295       0.04486270       0.00000000
