10
Lattice="16.290000149 0.0 0.0 0.0 16.290000149 0.0 0.0 0.0 29.1751946751" Properties=species:S:1:pos:R:3:initial_magmoms:R:1 pbc="T T T"
Si       1.39305565       1.43563771      -1.17613962       0.00000000
Si       1.70116472      -1.59782095       0.01540450       0.00000000
Si      -0.95715154       1.27133677       1.75331250       0.00000000
Si      -1.59389506      -0.81274069      -1.56166065       0.00000000
Si      -2.07215318       1.21730284      -2.61972826       0.00000000
Si      -0.17396091       2.71612946      -2.30046410       0.00000000
Si       0.63004834      -3.35733645      -1.04876072       0.00000000
Si      -2.40886748       2.68861565       0.53580245       0.00000000
Si      -0.29830248      -2.31446693      -2.88253841       0.00000000
Si       2.35514306      -2.02126322       2.14665539       0.00000000
