10
Lattice="16.290000149 0.0 0.0 0.0 16.290000149 0.0 0.0 0.0 29.1751946751" Properties=species:S:1:pos:R:3:initial_magmoms:R:1 pbc="T T T"
Si      -1.38023542       1.34612416       1.33750762       0.00000000
Si      -1.36529749      -1.33996654      -1.37330559       0.00000000
Si       1.34444629       1.37042884      -1.36443633       0.00000000
Si       1.34050411      -1.36746406       1.37333476       0.00000000
Si      -2.67869504       2.64518651      -0.12662034       0.00000000
Si       2.66002833      -2.70440066      -0.03489353       0.00000000
Si       0.00954594       2.70301601       2.67078485       0.00000000
Si      -2.73147465      -0.04530249       2.68067524       0.00000000
Si       2.73179882       0.00881289       2.68700625       0.00000000
Si      -0.01865205      -2.68845275      -2.74001758       0.00000000
