10
Lattice="16.290000149 0.0 0.0 0.0 16.290000149 0.0 0.0 0.0 29.1751946751" Properties=species:S:1:pos:R:3:initial_magmoms:R:1 pbc="T T T"
Si      -0.51674976      -0.91118116      -2.09273671       0.00000000
Si       2.05695461       1.01063161       0.72229029       0.00000000
Si      -1.41482887       1.94869127       0.00630184       0.00000000
Si      -0.68150356      -1.76305043       1.50646118       0.00000000
H        1.45007065       1.57172437      -2.37891620       0.00000000
Si      -1.94395088      -0.33534594       2.83402444       0.00000000
H        2.85347046      -0.45773271      -1.92521275       0.00000000
Si       0.25397739       1.20552517      -3.26983912       0.00000000
Si       1.04967874       2.25090335       2.56534569       0.00000000
Si      -3.08482104       1.16558209       1.45210779       0.00000000
