10
Lattice="16.290000149 0.0 0.0 0.0 16.290000149 0.0 0.0 0.0 29.1751946751" Properties=species:S:1:pos:R:3:initial_magmoms:R:1 pbc="T T T"
Si      -2.23158341       0.50806881      -0.32445734       0.00000000
Si       0.88798420      -1.42262200       1.59191532       0.00000000
Si       0.55882846      -1.03669561      -2.00996669       0.00000000
Si       1.24131430       1.78719221      -0.84433013       0.00000000
H       -0.01982493      -1.49630167       2.80878352       0.00000000
Si       0.60002587       1.10889778      -2.98978642       0.00000000
Si       2.77356801      -0.08021196       1.98297963       0.00000000
Si       3.29556477       1.17567537       0.05175680       0.00000000
Si       1.15652485       1.44954774       3.05732700       0.00000000
Si      -1.06103287      -2.72445365      -2.08252540       0.00000000
