10
Lattice="16.290000149 0.0 0.0 0.0 16.290000149 0.0 0.0 0.0 29.1751946751" Properties=species:S:1:pos:R:3:initial_magmoms:R:1 pbc="T T T"
Si      -1.35433432       1.35617509      -1.30582336       0.00000000
Si       1.38963475       1.34983828       1.29176092       0.00000000
Si       1.36138789      -1.34666173      -1.33412330       0.00000000
Si      -1.34713414      -1.30577383       1.39361152       0.00000000
H       -0.44057934      -2.20289672       2.20392338       0.00000000
Si       2.60998382      -0.18186156       2.53520772       0.00000000
Si      -2.66479967      -0.07245792      -2.62856834       0.00000000
Si      -2.55189368       2.75843460       0.16837005       0.00000000
Si       2.60322347      -2.73427652       0.03842373       0.00000000
Si       0.01830996       2.61079832      -2.73680831       0.00000000
