10
Lattice="16.290000149 0.0 0.0 0.0 16.290000149 0.0 0.0 0.0 29.1751946751" Properties=species:S:1:pos:R:3:initial_magmoms:R:1 pbc="T T T"
Si       1.35314515       1.39781233      -1.32041096       0.00000000
Si      -1.35177679       1.36923967       1.35871799       0.00000000
Si       1.37653759      -1.34729704       1.35938902       0.00000000
Si      -1.36241416      -1.36770841      -1.36338602       0.00000000
Si       2.73512361       0.04137660      -2.64483351       0.00000000
Si      -2.70821252      -2.69677694       0.01803027       0.00000000
Si       2.69035868       2.72243369       0.08454971       0.00000000
Si      -2.69846459       0.02155167       2.72726802       0.00000000
Si       0.02138877      -2.69131979       2.73529120       0.00000000
Si      -2.71751249       2.71704170      -0.01353729       0.00000000
