10
Lattice="16.290000149 0.0 0.0 0.0 16.290000149 0.0 0.0 0.0 29.1751946751" Properties=species:S:1:pos:R:3:initial_magmoms:R:1 pbc="T T T"
Si      -0.53072820      -0.25651863       1.38757226       0.00000000
H       -0.67308652      -0.92738971      -1.62234505       0.00000000
H       -1.60381567       0.83966806      -1.16537398       0.00000000
H        1.28115964       1.75528010       0.43103433       0.00000000
Si       0.46270116      -0.98513776      -2.62264577       0.00000000
Si       2.18896877       1.82895977      -0.78583387       0.00000000
Si       2.52563420      -0.29178648      -1.71958597       0.00000000
Si       1.15888690      -1.18578169       2.69946406       0.00000000
Si      -2.32819940      -1.85217302       1.27209684       0.00000000
Si      -1.38078928       1.61705944       2.50428201       0.00000000
