10
Lattice="16.290000149 0.0 0.0 0.0 16.290000149 0.0 0.0 0.0 29.1751946751" Properties=species:S:1:pos:R:3:initial_magmoms:R:1 pbc="T T T"
Si      -1.68334346       1.67145176       0.25236543       0.00000000
Si       0.34658604      -0.24228117       2.36155696       0.00000000
Si       1.63665631       1.06020208      -1.43063485       0.00000000
Si      -1.07219152      -1.69064138      -1.38410041       0.00000000
H        1.88352312      -1.63950707       0.25811295       0.00000000
H        0.54959202       2.45878004       1.39267792       0.00000000
H       -1.09687087       0.04256577       2.80096456       0.00000000
Si      -2.41564412      -0.27956898      -2.75737682       0.00000000
Si       0.33831072       2.47164914      -2.78611439       0.00000000
Si      -3.54353115       0.83276110      -1.00348082       0.00000000
