10
Lattice="16.290000149 0.0 0.0 0.0 16.290000149 0.0 0.0 0.0 29.1751946751" Properties=species:S:1:pos:R:3:initial_magmoms:R:1 pbc="T T T"
Si       1.19237914      -0.49001949       0.80409754       0.00000000
H       -0.80273863       0.78398884      -1.64562686       0.00000000
H        0.64775557       1.68197510      -1.11137069       0.00000000
H       -0.54928252       0.14331942       2.33451155       0.00000000
Si      -1.86145832       0.60950665       1.72973894       0.00000000
Si      -1.63514135      -0.15669351      -2.46078179       0.00000000
Si       2.53071668      -1.54958626      -0.81410463       0.00000000
Si      -1.59659920       2.64121175       0.52880040       0.00000000
Si      -2.83371069      -1.38556225       0.85045692       0.00000000
Si       0.50906250      -2.34978365       2.22437519       0.00000000
