10
Lattice="16.290000149 0.0 0.0 0.0 16.290000149 0.0 0.0 0.0 29.1751946751" Properties=species:S:1:pos:R:3:initial_magmoms:R:1 pbc="T T T"
Si      -0.83240272      -0.94068235      -0.81515494       0.00000000
H        1.45049419       0.89798626       0.53425616       0.00000000
H        0.80273863      -0.78398884       1.64562686       0.00000000
Si       2.09233649       1.72670744      -0.53939100       0.00000000
Si      -1.07790931       2.74651032      -0.06666532       0.00000000
Si      -0.79386058       1.85722292       2.17442726       0.00000000
Si      -2.12439521       0.35315091      -2.24330989       0.00000000
Si       0.59997700      -2.38207043      -1.93726210       0.00000000
Si      -2.66165570      -1.76888225       0.34765162       0.00000000
Si       1.99511777      -1.27400833       2.44972440       0.00000000
