10
Lattice="16.290000149 0.0 0.0 0.0 16.290000149 0.0 0.0 0.0 29.1751946751" Properties=species:S:1:pos:R:3:initial_magmoms:R:1 pbc="T T T"
Si       1.83244583       1.02177397      -0.94247841       0.00000000
Si       1.40634829      -1.36376623       1.25434957       0.00000000
Si      -1.32046741       1.48881336       1.20865538       0.00000000
Si      -1.30448692      -1.18410382      -1.55319313       0.00000000
Si       0.99856072       2.26604328      -2.65593759       0.00000000
Si      -2.67015908       0.09371637       2.51953772       0.00000000
Si      -2.62539416      -2.58734072      -0.20984551       0.00000000
Si       0.05079222      -2.70430292       2.56986493       0.00000000
Si       2.74427859      -2.51774984      -0.30270140       0.00000000
Si       2.82846531       0.09588294       2.47950935       0.00000000
