10
Lattice="16.290000149 0.0 0.0 0.0 16.290000149 0.0 0.0 0.0 29.1751946751" Properties=species:S:1:pos:R:3:initial_magmoms:R:1 pbc="T T T"
Si      -1.34879572      -1.36145305      -1.34999461       0.00000000
Si       1.34293132      -1.38274408       1.34424709       0.00000000
Si      -1.38852703       1.35071794       1.33321887       0.00000000
Si       1.34829073       1.34809525      -1.37791527       0.00000000
Si       2.71073747      -0.02500515       2.67314804       0.00000000
Si      -0.03652218       2.73645938       2.65573045       0.00000000
Si      -2.69176125      -0.00298107      -2.71320558       0.00000000
Si       2.71406063       2.70322778      -0.03133416       0.00000000
Si       0.01045818      -2.71645526      -2.70410292       0.00000000
Si      -0.03202614      -2.71979471       2.70576590       0.00000000
