10
Lattice="16.290000149 0.0 0.0 0.0 16.290000149 0.0 0.0 0.0 29.1751946751" Properties=species:S:1:pos:R:3:initial_magmoms:R:1 pbc="T T T"
Si       0.92835082      -1.04286952       1.83377769       0.00000000
Si      -0.77035411      -2.04488372      -0.88094500       0.00000000
Si      -1.29559258       1.50172624       1.32087776       0.00000000
Si       1.99143623       0.59926024      -1.17001283       0.00000000
H       -0.25949970       2.68135031      -1.44472647       0.00000000
Si      -0.15442920      -1.52961472      -3.06272441       0.00000000
Si       2.26128008      -2.58918149       0.67633936       0.00000000
Si      -1.01097370      -2.07050789       2.73464935       0.00000000
Si       1.99946720       0.71664598       2.89794291       0.00000000
Si       0.29830248       2.31446693       2.88253841       0.00000000
