10
Lattice="16.290000149 0.0 0.0 0.0 16.290000149 0.0 0.0 0.0 29.1751946751" Properties=species:S:1:pos:R:3:initial_magmoms:R:1 pbc="T T T"
Si       1.35876520       1.36383139      -1.34270081       0.00000000
Si      -1.35290080       1.38541564       1.33666154       0.00000000
Si       1.38766366      -1.34180731       1.34768977       0.00000000
Si      -1.35713620      -1.36236529      -1.35909727       0.00000000
Si      -2.70710480       0.03007134       2.67072650       0.00000000
Si       0.05020578      -2.79057477       2.60225231       0.00000000
Si       2.69040755       2.71830092       0.04107867       0.00000000
Si      -0.00164529       2.71686414      -2.69514613       0.00000000
Si       2.70941798       0.00304623      -2.70293591       0.00000000
Si      -2.72784197      -0.01451439      -2.69955159       0.00000000
