10
Lattice="16.290000149 0.0 0.0 0.0 16.290000149 0.0 0.0 0.0 29.1751946751" Properties=species:S:1:pos:R:3:initial_magmoms:R:1 pbc="T T T"
Si       1.45944962       1.17845119      -1.41686124       0.00000000
Si      -1.39566205      -1.32180319      -1.36446259       0.00000000
Si      -1.33063237       1.44041068       1.31372692       0.00000000
Si       1.38782656      -1.36034533       1.35653277       0.00000000
Si       0.14089221      -2.59520879      -2.56134577       0.00000000
Si       0.05636340       2.34898544      -2.87696303       0.00000000
H       -0.84473425       3.09102753      -1.89901050       0.00000000
Si      -2.67193469       0.02212182       2.67388033       0.00000000
Si       2.67930592       2.66870927      -0.01861669       0.00000000
Si      -2.61263909      -2.75602368       0.07766729       0.00000000
