10
Lattice="16.290000149 0.0 0.0 0.0 16.290000149 0.0 0.0 0.0 29.1751946751" Properties=species:S:1:pos:R:3:initial_magmoms:R:1 pbc="T T T"
Si      -1.56701656       1.28049175      -1.12432448       0.00000000
Si      -1.39305565      -1.43563771       1.17613962       0.00000000
Si       1.56411694       1.12326067       1.46748312       0.00000000
Si       1.06955254      -1.11089656      -1.86773761       0.00000000
Si       2.09447048      -2.44578062      -0.24936039       0.00000000
Si       0.30810906      -3.03345867       1.19154413       0.00000000
Si       0.05108544       2.30891204      -2.51796518       0.00000000
Si       1.83006749       0.75979819      -3.14876206       0.00000000
Si      -2.53886168       2.73735533       0.38452907       0.00000000
Si      -2.98695072      -2.24837840      -0.38552102       0.00000000
