10
Lattice="16.290000149 0.0 0.0 0.0 16.290000149 0.0 0.0 0.0 29.1751946751" Properties=species:S:1:pos:R:3:initial_magmoms:R:1 pbc="T T T"
Si       2.24582087      -0.50704254       0.27383838       0.00000000
Si      -1.57376062      -1.68675784      -0.44334626       0.00000000
Si      -0.73034587       0.63377875       2.17947223       0.00000000
Si      -0.07407063       1.46162026      -1.93096026       0.00000000
H        0.26599941      -1.11123865      -2.82760152       0.00000000
Si      -2.82768339      -0.58007062      -2.04617310       0.00000000
Si      -1.30313485       3.31343490      -1.26547407       0.00000000
Si       1.31139388      -2.22609205      -2.84828673       0.00000000
Si       3.17650442      -1.32345989      -1.72194916       0.00000000
H       -0.00540828       3.86406949      -0.34593028       0.00000000
