10
Lattice="16.290000149 0.0 0.0 0.0 16.290000149 0.0 0.0 0.0 29.1751946751" Properties=species:S:1:pos:R:3:initial_magmoms:R:1 pbc="T T T"
Si      -0.97184512       1.45686358       1.50885354       0.00000000
Si       1.56701656      -1.28049175       1.12432448       0.00000000
Si       1.61810200       1.02842029      -1.39364070       0.00000000
Si      -1.89819227      -1.49882662      -0.31926416       0.00000000
H       -0.38384127      -2.34924608      -2.02680077       0.00000000
H        0.76566259      -0.71359975      -3.15130030       0.00000000
H       -2.49763169      -1.59019723      -1.71990690       0.00000000
Si       0.17396091      -2.71612946       2.30046410       0.00000000
Si      -2.66146022       2.38612664       0.19696174       0.00000000
H       -2.13073202       2.64264527      -1.19061052       0.00000000
