10
Lattice="16.290000149 0.0 0.0 0.0 16.290000149 0.0 0.0 0.0 29.1751946751" Properties=species:S:1:pos:R:3:initial_magmoms:R:1 pbc="T T T"
Si      -0.28617458       0.81018316       2.15435473       0.00000000
Si       1.63416395      -1.66759103       0.08096117       0.00000000
Si       0.90733672       1.72827128      -1.28566330       0.00000000
Si      -1.83602963      -0.96457978      -1.08391683       0.00000000
H       -0.91693153      -2.41974920      -1.03434818       0.00000000
Si      -2.55780695       1.28879965       2.02779273       0.00000000
Si       2.44424936       0.46763703      -2.48275072       0.00000000
Si       3.46814103      -0.36810513      -0.53373101       0.00000000
Si      -0.41405597      -2.32815053      -2.62261660       0.00000000
Si       0.99445564       2.79579245       2.27026777       0.00000000
