10
Lattice="16.290000149 0.0 0.0 0.0 16.290000149 0.0 0.0 0.0 29.1751946751" Properties=species:S:1:pos:R:3:initial_magmoms:R:1 pbc="T T T"
Si      -0.84453877       1.84604798      -1.12315747       0.00000000
Si       1.71620039      -0.44325090      -1.52390794       0.00000000
Si       1.37948608       1.02806191       1.63162276       0.00000000
Si      -1.39396789      -1.73939735       0.91417555       0.00000000
H        1.11676096      -0.53462151      -2.92455069       0.00000000
H       -2.00085185      -1.17830458      -2.18703094       0.00000000
Si       2.19445850      -2.47329443      -0.46584033       0.00000000
Si       0.32459454      -3.36981459       0.81034103       0.00000000
Si       2.64254753       2.51243930       0.30420975       0.00000000
Si      -2.56534922       2.60338637       0.25642079       0.00000000
