10
Lattice="16.290000149 0.0 0.0 0.0 16.290000149 0.0 0.0 0.0 29.1751946751" Properties=species:S:1:pos:R:3:initial_magmoms:R:1 pbc="T T T"
Si      -1.35651718      -1.34941474      -1.35463346       0.00000000
Si      -1.34359921       1.33120252       1.38669700       0.00000000
Si       1.34055298       1.35325918      -1.38558835       0.00000000
Si       1.34516305      -1.38096847       1.35463346       0.00000000
Si       0.06851574      -2.70982523      -2.62474639       0.00000000
Si      -2.70612740       2.67045230       0.02199810       0.00000000
Si       2.70492846       2.68315850      -0.00641854       0.00000000
Si      -2.69503391      -0.06092460       2.71320558       0.00000000
Si       2.69518052      -0.03517011      -2.71565630       0.00000000
Si       2.69738293      -0.02826315       2.71562712       0.00000000
