10
Lattice="16.290000149 0.0 0.0 0.0 16.290000149 0.0 0.0 0.0 29.1751946751" Properties=species:S:1:pos:R:3:initial_magmoms:R:1 pbc="T T T"
Si       1.33516099       1.36429077      -1.36872508       0.00000000
Si      -1.36246303      -1.34214614      -1.37715671       0.00000000
Si      -1.42547275       1.36152147       1.29899637       0.00000000
Si       1.40203144      -1.34035424       1.35947655       0.00000000
Si       0.05898609      -2.71943308       2.67265206       0.00000000
Si       2.70650207      -2.68734178      -0.07133335       0.00000000
Si       2.69527826       2.71020316      -0.00096278       0.00000000
Si      -0.13258431       2.79901624       2.61211353       0.00000000
Si      -2.72688086      -2.69074639      -0.02611180       0.00000000
Si       2.62917344       0.09388416       2.78701882       0.00000000
