10
Lattice="16.290000149 0.0 0.0 0.0 16.290000149 0.0 0.0 0.0 29.1751946751" Properties=species:S:1:pos:R:3:initial_magmoms:R:1 pbc="T T T"
Si      -1.43306389       1.32336703       1.27991579       0.00000000
Si      -1.37960011      -1.33944526      -1.33076815       0.00000000
Si       1.34789977       1.35840682      -1.35262038       0.00000000
Si       1.35544204      -1.33252201       1.38042434       0.00000000
Si      -0.00935046       2.71249679       2.46337839       0.00000000
Si      -0.00161271      -2.70558983      -2.64274748       0.00000000
Si       2.72580572       0.01122381      -2.67390659       0.00000000
Si      -2.72992709       0.03655476      -2.67399412       0.00000000
Si      -0.01389537       2.75261907      -2.65797694       0.00000000
Si       2.72712521      -2.69185736       0.05826286       0.00000000
