10
Lattice="16.290000149 0.0 0.0 0.0 16.290000149 0.0 0.0 0.0 29.1751946751" Properties=species:S:1:pos:R:3:initial_magmoms:R:1 pbc="T T T"
H        1.21828024      -1.96441112       0.22222746       0.00000000
H       -1.98542522      -0.62265268      -1.08073674       0.00000000
Si       1.87494644       0.70576426       1.27816528       0.00000000
Si      -0.76051495      -1.87069475       1.28102445       0.00000000
Si       0.63180766      -0.33552513      -2.32637167       0.00000000
Si      -1.77898205       1.54911385       0.63079688       0.00000000
H       -2.63142146      -0.19290618      -1.12686272       0.00000000
H       -0.42653736       2.15757794      -2.21623531       0.00000000
H        2.32321466       1.99311410       0.61918516       0.00000000
H        2.86474314       0.45180315      -1.18605919       0.00000000
