10
Lattice="16.290000149 0.0 0.0 0.0 16.290000149 0.0 0.0 0.0 29.1751946751" Properties=species:S:1:pos:R:3:initial_magmoms:R:1 pbc="T T T"
H       -1.18065034      -0.53561520      -1.05412896       0.00000000
Si      -1.53655426       1.27340560       1.19688319       0.00000000
Si       1.14087016      -1.50092803       1.38191665       0.00000000
Si       1.66999217       0.78310918      -1.44580595       0.00000000
Si      -2.47837691      -1.08624979      -1.97367274       0.00000000
Si       3.08482104      -1.16558209      -1.45210779       0.00000000
Si      -0.14089221       2.59520879       2.56134577       0.00000000
Si       2.64714131      -0.11474676       2.54859913       0.00000000
Si       2.77874497       2.49326597      -0.20084204       0.00000000
Si       2.40331748      -2.92863252       0.05435339       0.00000000
