10
Lattice="16.290000149 0.0 0.0 0.0 16.290000149 0.0 0.0 0.0 29.1751946751" Properties=species:S:1:pos:R:3:initial_magmoms:R:1 pbc="T T T"
H       -1.19237914       0.49001949      -0.80409754       0.00000000
Si       1.33833754      -1.05956677      -1.61820217       0.00000000
H       -1.74166166       0.63333892       1.53041401       0.00000000
Si       1.26775297       1.66995308       1.20044256       0.00000000
Si      -0.68331664      -1.85976416       1.42027765       0.00000000
H       -0.54462358       2.17199459      -1.91546823       0.00000000
H        1.54961884      -1.07243587       2.56059014       0.00000000
Si      -3.05383746       1.09952614       0.92564140       0.00000000
H       -1.99511777       1.27400833      -2.44972440       0.00000000
Si       2.57455307       0.04083903       2.33016445       0.00000000
