10
Lattice="16.290000149 0.0 0.0 0.0 16.290000149 0.0 0.0 0.0 29.1751946751" Properties=species:S:1:pos:R:3:initial_magmoms:R:1 pbc="T T T"
Si       1.25392276      -1.10668722       1.60282685       0.00000000
Si      -1.81016111      -1.32644747      -0.60529776       0.00000000
Si       1.21854088       1.32201496      -1.49490780       0.00000000
Si      -1.33292926       1.54631197       1.15743832       0.00000000
Si      -0.64158166      -1.12349850       2.94170570       0.00000000
H        3.09368280      -0.53116803      -0.78142841       0.00000000
Si      -0.19311795      -2.85620718      -1.67964513       0.00000000
Si       2.75361276       2.04169088       0.11521284       0.00000000
Si      -3.03163419       0.54429778      -1.55728437       0.00000000
Si      -2.54246177      -1.67137519       1.65630498       0.00000000
