10
Lattice="16.290000149 0.0 0.0 0.0 16.290000149 0.0 0.0 0.0 29.1751946751" Properties=species:S:1:pos:R:3:initial_magmoms:R:1 pbc="T T T"
Si      -1.35980776       1.35743920       1.33949154       0.00000000
Si       1.34871427       1.37371291      -1.33707000       0.00000000
Si       1.38251602      -1.35916268       1.32239487       0.00000000
Si      -1.35575155      -1.37180372      -1.33806195       0.00000000
Si       2.67876020      -0.04597853      -2.62337515       0.00000000
Si       0.00588069      -2.71473504       2.65473849       0.00000000
Si      -2.72632700      -0.01125802      -2.65170427       0.00000000
Si       0.01376505       2.70439415       2.68268833       0.00000000
Si       2.73285929       0.01022360       2.67393577       0.00000000
Si      -2.70414002       0.00203951       2.70491982       0.00000000
