10
Lattice="16.290000149 0.0 0.0 0.0 16.290000149 0.0 0.0 0.0 29.1751946751" Properties=species:S:1:pos:R:3:initial_magmoms:R:1 pbc="T T T"
Si       1.38525274      -1.31429350      -1.35828036       0.00000000
Si       1.37142253       1.36120870       1.32668363       0.00000000
Si      -1.35549091       1.37031481      -1.33931649       0.00000000
Si      -1.35599590      -1.35560494       1.35784274       0.00000000
Si       0.00666261      -2.67822263      -2.66302424       0.00000000
Si      -0.00648342       2.70839171       2.64796984       0.00000000
Si       0.02445129       2.68833872      -2.70261498       0.00000000
Si       2.71445159      -2.68076387       0.01794274       0.00000000
Si      -2.73398331       0.01053963       2.66982206       0.00000000
Si      -2.73463491      -2.69079851       0.01339141       0.00000000
