10
Lattice="16.290000149 0.0 0.0 0.0 16.290000149 0.0 0.0 0.0 29.1751946751" Properties=species:S:1:pos:R:3:initial_magmoms:R:1 pbc="T T T"
Si      -1.40308622       1.17053425      -1.46010179       0.00000000
Si      -1.45944962      -1.17845119       1.41686124       0.00000000
Si       1.46018756      -1.28039401      -1.34532658       0.00000000
Si       1.21985630       1.49025808       1.39824455       0.00000000
H       -2.30418387       1.91257634      -0.48214927       0.00000000
Si       2.65183691       0.41417325      -2.53205680       0.00000000
Si      -0.07162306      -2.53879652       2.77339401       0.00000000
Si      -2.85511167      -2.50025438       0.05239865       0.00000000
Si       2.60544299       0.15061734       2.77038896       0.00000000
Si      -0.25208368       2.81131194      -2.64032594       0.00000000
