10
Lattice="16.290000149 0.0 0.0 0.0 16.290000149 0.0 0.0 0.0 29.1751946751" Properties=species:S:1:pos:R:3:initial_magmoms:R:1 pbc="T T T"
Si       1.34969167       1.39509699      -1.31088234       0.00000000
Si      -1.32401863       1.35176050       1.38459639       0.00000000
Si      -1.33721353      -1.32462136      -1.40496067       0.00000000
Si       1.38504097      -1.35668008       1.33949154       0.00000000
Si       2.67015908      -0.09371637      -2.51953772       0.00000000
Si       0.02132361      -2.71847522       2.66888846       0.00000000
Si       2.71049312       2.67758570       0.09928319       0.00000000
Si      -0.03334563       2.71935163      -2.67683870       0.00000000
Si      -2.71129133      -0.00764001       2.68884429       0.00000000
Si      -2.69459408       2.71230620       0.07095407       0.00000000
