10
Lattice="16.290000149 0.0 0.0 0.0 16.290000149 0.0 0.0 0.0 29.1751946751" Properties=species:S:1:pos:R:3:initial_magmoms:R:1 pbc="T T T"
Si       1.81016111       1.32644747       0.60529776       0.00000000
Si      -0.73230067      -0.34492772       2.26160274       0.00000000
Si      -1.22147308       1.87074525      -0.95198660       0.00000000
Si       1.61704315      -1.52975971      -1.07434737       0.00000000
H        0.71811208      -2.51887222       0.99099384       0.00000000
H       -1.17634978      -2.94584942      -0.24854348       0.00000000
Si      -0.26854065      -2.87216975      -1.46541168       0.00000000
Si       0.47723184       2.87275945       1.76273609       0.00000000
Si      -1.46209267       1.84512108       2.66360775       0.00000000
Si      -1.15652485      -1.44954774      -3.05732700       0.00000000
