10
Lattice="16.290000149 0.0 0.0 0.0 16.290000149 0.0 0.0 0.0 29.1751946751" Properties=species:S:1:pos:R:3:initial_magmoms:R:1 pbc="T T T"
H        0.64599625      -0.42974649       0.04612598       0.00000000
H       -1.14950386      -1.63564634       1.12449953       0.00000000
Si      -1.86911462      -1.71383834      -0.20028771       0.00000000
Si       0.85243942       1.74202004       1.75765960       0.00000000
Si      -0.07954407       0.82160245      -2.57342722       0.00000000
Si      -2.20564973       0.23682402      -1.57438103       0.00000000
Si       2.63142146       0.19290618       1.12686272       0.00000000
Si       1.40304142      -0.98130961      -2.45535521       0.00000000
Si      -0.25961373      -2.50230692      -1.72314535       0.00000000
Si      -0.37076040       3.06445854       0.24110381       0.00000000
