10
Lattice="16.290000149 0.0 0.0 0.0 16.290000149 0.0 0.0 0.0 29.1751946751" Properties=species:S:1:pos:R:3:initial_magmoms:R:1 pbc="T T T"
Si       1.36752922      -1.35799957       1.32685868       0.00000000
Si       1.36844146       1.34390872      -1.34261328       0.00000000
Si      -1.34081362      -1.36277254      -1.36475726       0.00000000
Si      -1.31771440       1.36358704       1.39072318       0.00000000
Si      -0.01433520       2.68960934      -2.67837040       0.00000000
Si      -0.00814500      -2.68915322       2.68210482       0.00000000
Si       2.71909424       0.00407250       2.67177680       0.00000000
Si      -2.69941267      -2.71505432      -0.00245072       0.00000000
Si      -2.69186714      -0.00363267      -2.72449638       0.00000000
Si       2.71827974      -0.02122587      -2.69832623       0.00000000
