10
Lattice="16.290000149 0.0 0.0 0.0 16.290000149 0.0 0.0 0.0 29.1751946751" Properties=species:S:1:pos:R:3:initial_magmoms:R:1 pbc="T T T"
Si       0.45462132       2.20520990      -0.62933812       0.00000000
Si       1.08392032       0.09102852       2.09442888       0.00000000
Si      -0.41531355      -1.81024256      -1.49155265       0.00000000
Si      -2.31021850       0.17510121       0.60027963       0.00000000
H        2.73903320       1.01581183      -0.80001301       0.00000000
H       -0.07239276      -2.93332404       1.03055540       0.00000000
H        1.80830405       2.78286960      -0.34304194       0.00000000
Si      -1.26848602      -3.29952324       0.13963248       0.00000000
Si      -2.07608070       2.03365991       2.02913479       0.00000000
Si      -1.96894951      -0.72744625      -2.86412886       0.00000000
