10
Lattice="16.290000149 0.0 0.0 0.0 16.290000149 0.0 0.0 0.0 29.1751946751" Properties=species:S:1:pos:R:3:initial_magmoms:R:1 pbc="T T T"
Si       1.36441783       1.34860024      -1.35104492       0.00000000
Si       1.37989333      -1.35325918       1.33785773       0.00000000
Si      -1.35400852       1.35938422       1.36227736       0.00000000
Si      -1.36718713      -1.36247932      -1.35413749       0.00000000
Si       0.00649971      -2.67724523       2.69993087       0.00000000
Si      -0.02492370       2.69678672      -2.68449719       0.00000000
Si       2.66962151      -2.72199386      -0.07308386       0.00000000
Si       2.72688086       2.69074639       0.02611180       0.00000000
Si       2.68509701      -0.01998783      -2.73467852       0.00000000
Si      -2.68836968       0.00785178       2.73415337       0.00000000
