10
Lattice="16.290000149 0.0 0.0 0.0 16.290000149 0.0 0.0 0.0 29.1751946751" Properties=species:S:1:pos:R:3:initial_magmoms:R:1 pbc="T T T"
Si      -1.54126207      -1.31323465      -1.19034794       0.00000000
Si      -1.40587588       1.18333819       1.47130507       0.00000000
Si       1.38996055      -1.31013955       1.43387329       0.00000000
Si       0.78659524       1.50255540      -1.70432735       0.00000000
H        1.16693416      -2.08753094      -2.23578269       0.00000000
Si      -1.28177866       2.22368765      -2.55247943       0.00000000
Si      -0.18674856      -2.66519063      -2.52207888       0.00000000
Si      -2.56240888       0.23807835      -2.66839248       0.00000000
Si       0.03973131       2.62574114       2.74827416       0.00000000
H       -0.60398434       3.78068097       0.02313593       0.00000000
