10
Lattice="16.290000149 0.0 0.0 0.0 16.290000149 0.0 0.0 0.0 29.1751946751" Properties=species:S:1:pos:R:3:initial_magmoms:R:1 pbc="T T T"
Si      -1.36982123      -1.37296845      -1.33009713       0.00000000
Si       1.34770918       1.35236486      -1.37724424       0.00000000
Si       1.40296486      -1.33916670       1.33461928       0.00000000
Si      -1.39674860       1.33674275       1.34882760       0.00000000
Si      -0.01723645       2.69969448       2.68169637       0.00000000
Si       0.06860371      -2.69069915       2.70649528       0.00000000
Si      -2.70213147      -0.00691673      -2.70252746       0.00000000
Si      -2.69996490       2.71665237      -0.02733716       0.00000000
Si      -0.00037793      -2.71236485      -2.71130919       0.00000000
Si       2.70385169       2.71997553      -0.04037847       0.00000000
