10
Lattice="16.290000149 0.0 0.0 0.0 16.290000149 0.0 0.0 0.0 29.1751946751" Properties=species:S:1:pos:R:3:initial_magmoms:R:1 pbc="T T T"
Si       1.43967763       1.32887305       1.21088728       0.00000000
Si      -1.24183558       1.38761479      -1.37254703       0.00000000
Si       1.51992217      -1.31751729      -1.19764174       0.00000000
Si      -1.16095573      -1.43874259       1.50406881       0.00000000
H        2.07958142       0.48635424       2.29185742       0.00000000
Si       2.50064534      -2.17609478       0.79021015       0.00000000
Si       0.75499264      -2.50223688       2.28275476       0.00000000
Si       0.00676035       2.55241496       2.49678399       0.00000000
Si      -2.41175081      -2.75711511       0.03165509       0.00000000
Si      -2.53472402      -0.04987998      -2.68566420       0.00000000
