10
Lattice="16.290000149 0.0 0.0 0.0 16.290000149 0.0 0.0 0.0 29.1751946751" Properties=species:S:1:pos:R:3:initial_magmoms:R:1 pbc="T T T"
Si       1.35200485       1.38574144       1.32251157       0.00000000
Si      -1.33926281       1.35984034      -1.36204396       0.00000000
Si       1.38852703      -1.35071794      -1.33321887       0.00000000
Si      -1.35096066      -1.36586764       1.36329850       0.00000000
Si       2.66084120      -0.04181643       2.62080774       0.00000000
Si      -2.66654270       2.70896186       0.03375570       0.00000000
Si       0.03973131      -2.71217099      -2.68321348       0.00000000
Si      -2.69148269       0.00713502      -2.72303762       0.00000000
Si      -2.69386103      -2.72696231       0.01029884       0.00000000
Si       0.01933623       2.71212212      -2.72435050       0.00000000
