10
Lattice="16.290000149 0.0 0.0 0.0 16.290000149 0.0 0.0 0.0 29.1751946751" Properties=species:S:1:pos:R:3:initial_magmoms:R:1 pbc="T T T"
Si       1.37046957       1.36875097       1.32475806       0.00000000
Si       1.38012791      -1.34777108      -1.34109617       0.00000000
Si      -1.32507748       1.38421018      -1.35950572       0.00000000
Si      -1.35123922      -1.35092483       1.37421002       0.00000000
Si      -2.68288157      -2.70539435      -0.00956946       0.00000000
Si      -2.69371442       0.03544704      -2.69753850       0.00000000
Si       0.00438201       2.71951778       2.67411082       0.00000000
Si       2.69860142       0.00835677       2.69949324       0.00000000
Si       2.70456356       0.03606606      -2.70281921       0.00000000
Si      -2.69040755       2.73168641      -0.00939441       0.00000000
