10
Lattice="16.28999089631971 0.0 0.0 0.0 16.28999089631971 0.0 0.0 0.0 34.33025523377368" Properties=species:S:1:pos:R:3:initial_magmoms:R:1 pbc="T T T"
Si       1.34807895      -1.34945381       1.35426067       0.00000000
Si       1.34179101       1.34839009      -1.37705597       0.00000000
Si      -1.36531377       1.36560862       1.34948876       0.00000000
Si      -1.34488611      -1.36606867      -1.37290544       0.00000000
Si      -0.60434271       2.11312414      -2.50893541       0.00000000
Si      -2.35721187       0.27052803      -2.70639629       0.00000000
Si       2.70322776      -2.70921175      -0.00717503       0.00000000
Si       2.70440064       0.00682714       2.70979155       0.00000000
Si      -0.00840564      -2.70769678       2.70986021       0.00000000
Si       2.69912268       2.72828341      -0.01198127       0.00000000
