10
Lattice="16.28999089631971 0.0 0.0 0.0 16.28999089631971 0.0 0.0 0.0 34.33025523377368" Properties=species:S:1:pos:R:3:initial_magmoms:R:1 pbc="T T T"
Si       1.35860229      -1.35626453      -1.35999382       0.00000000
Si      -1.35736425       1.35940946      -1.36019980       0.00000000
Si      -1.35184194      -1.36056509       1.36926300       0.00000000
Si       1.36902789       1.35863895       1.37959641       0.00000000
Si      -2.54018115       0.15764925       2.72613276       0.00000000
Si       2.71252935      -2.71286315      -0.00164785       0.00000000
Si       2.71218726       2.71456479      -0.00024031       0.00000000
Si      -2.71531494      -2.71465505       0.00116723       0.00000000
Si       0.00001629      -2.71369394      -2.71665761       0.00000000
Si       2.71479366       0.00118791      -2.71655461       0.00000000
