10
Lattice="16.28999089631971 0.0 0.0 0.0 16.28999089631971 0.0 0.0 0.0 34.33025523377368" Properties=species:S:1:pos:R:3:initial_magmoms:R:1 pbc="T T T"
Si      -1.22572476      -1.41529037       1.43709962       0.00000000
Si       1.22515461      -1.51319327      -1.35244116       0.00000000
Si      -1.37793852       1.35157983      -1.40757558       0.00000000
Si       1.47263229       1.17335583       1.56237079       0.00000000
Si       1.92775860      -3.09120557       0.48975569       0.00000000
Si      -0.47250774      -3.62613659       0.81706053       0.00000000
Si      -0.03474657       1.73165160       3.35046313       0.00000000
Si       2.55511908      -0.11174696      -2.77711322       0.00000000
Si      -2.60809416       2.74795212       0.17532471       0.00000000
Si      -3.55596039      -1.36705568       0.74616851       0.00000000
