10
Lattice="16.28999089631971 0.0 0.0 0.0 16.28999089631971 0.0 0.0 0.0 34.33025523377368" Properties=species:S:1:pos:R:3:initial_magmoms:R:1 pbc="T T T"
Si      -1.57866390       1.47634641      -0.79278903       0.00000000
Si       0.89047656      -1.53130072      -1.51774143       0.00000000
Si       1.99922283       1.08053199       0.57005421       0.00000000
Si      -1.46064285      -1.24356720       1.48670686       0.00000000
Si       1.27467621      -3.18330125       0.09663972       0.00000000
Si       2.17714221       0.11927538       2.65496610       0.00000000
Si      -3.27960054       0.02233359      -1.42226894       0.00000000
Si      -0.82082052      -3.48375401       1.12726889       0.00000000
Si       1.68063930       3.35639160       0.45868680       0.00000000
Si       2.55091626      -2.10081446       1.83951909       0.00000000
