10
Lattice="16.28999089631971 0.0 0.0 0.0 16.28999089631971 0.0 0.0 0.0 34.33025523377368" Properties=species:S:1:pos:R:3:initial_magmoms:R:1 pbc="T T T"
Si       1.35065277      -1.34688978       1.36171033       0.00000000
Si      -1.36360332      -1.35501849      -1.35854165       0.00000000
Si      -1.36487394       1.36731744       1.35820865       0.00000000
Si       1.36692648       1.37039625      -1.38824420       0.00000000
Si      -2.50574409       0.13559796      -2.78921121       0.00000000
Si       2.70146844      -2.69990460      -0.00343303       0.00000000
Si      -0.00705357      -2.70622512       2.71741287       0.00000000
Si       2.70847314       0.00850338       2.71737854       0.00000000
Si      -2.73174503      -2.69584839       0.00418829       0.00000000
Si       2.70989037       2.71857294       0.00188817       0.00000000
