10
Lattice="16.28999089631971 0.0 0.0 0.0 16.28999089631971 0.0 0.0 0.0 34.33025523377368" Properties=species:S:1:pos:R:3:initial_magmoms:R:1 pbc="T T T"
Si      -0.97845885      -0.76530420       1.97275489       0.00000000
Si       0.76364262       2.21638482       0.06920983       0.00000000
Si       2.04724575      -1.22117985      -0.28892359       0.00000000
Si      -1.89061740      -0.14424795      -1.63439570       0.00000000
Si       2.35714671       2.15445024      -1.85575731       0.00000000
Si       0.79356735      -0.95922036       3.52218316       0.00000000
Si      -2.72810259       2.10659022      -1.48368580       0.00000000
Si      -1.18791567       3.55781745      -0.17752185       0.00000000
Si       3.76471674       0.48386187      -0.62608121       0.00000000
Si      -2.13179085      -2.81606859       1.60487167       0.00000000
