10
Lattice="16.28999089631971 0.0 0.0 0.0 16.28999089631971 0.0 0.0 0.0 34.33025523377368" Properties=species:S:1:pos:R:3:initial_magmoms:R:1 pbc="T T T"
Si      -2.04724575       1.22117985       0.28892359       0.00000000
Si       0.52787745      -1.90117332       1.41941953       0.00000000
Si       1.71747099       1.70504172      -0.33715763       0.00000000
Si       0.23817609      -0.72796752      -2.35900481       0.00000000
Si      -1.28360313       3.43756467       0.35813342       0.00000000
Si       0.87519654      -0.84328443       3.48177643       0.00000000
Si       2.22684300      -2.98747197       0.08857211       0.00000000
Si       0.30990096       3.37563009      -1.56683372       0.00000000
Si      -3.02570460       0.45587565       2.26167848       0.00000000
Si       3.18401082       0.87518025      -2.04416186       0.00000000
