10
Lattice="16.28999089631971 0.0 0.0 0.0 16.28999089631971 0.0 0.0 0.0 34.33025523377368" Properties=species:S:1:pos:R:3:initial_magmoms:R:1 pbc="T T T"
Si       1.39204566       1.66249224      -0.82148914       0.00000000
Si      -1.00043406       0.81223569       1.94237260       0.00000000
Si      -1.52891424      -0.33858765      -1.74404660       0.00000000
Si       1.36832742      -1.84687875       1.09118777       0.00000000
Si       2.39150232       1.45632600       1.26393771       0.00000000
Si       0.98344359       0.85292811       3.17761020       0.00000000
Si      -0.54838656      -3.39293333       1.17138329       0.00000000
Si      -3.14929683      -1.84689504      -0.83079264       0.00000000
Si       2.93177646       0.61291125      -2.27853464       0.00000000
Si      -0.32752674      -1.26713394      -3.53001047       0.00000000
