10
Lattice="16.28999089631971 0.0 0.0 0.0 16.28999089631971 0.0 0.0 0.0 34.33025523377368" Properties=species:S:1:pos:R:3:initial_magmoms:R:1 pbc="T T T"
Si      -1.29999087      -1.26309402      -1.41237637       0.00000000
Si      -1.51545870       1.18099242       1.35038134       0.00000000
Si       1.22365593      -1.54764774       1.33983165       0.00000000
Si       1.42400664       1.37041254      -1.44948739       0.00000000
Si      -2.19561507       0.38335257      -2.90752848       0.00000000
Si      -0.15416856       2.52180603       2.72975804       0.00000000
Si       2.66049909       2.61288342       0.08930334       0.00000000
Si       2.56661982      -0.19947105       2.72996402       0.00000000
Si      -2.72130477       2.62335789      -0.23920992       0.00000000
Si      -2.64901464      -2.78244603      -0.06113535       0.00000000
