10
Lattice="16.28999089631971 0.0 0.0 0.0 16.28999089631971 0.0 0.0 0.0 34.33025523377368" Properties=species:S:1:pos:R:3:initial_magmoms:R:1 pbc="T T T"
Si       1.35668007      -1.35742941       1.35728173       0.00000000
Si      -1.35777150       1.35695700       1.35721307       0.00000000
Si      -1.35834165      -1.35692442      -1.35985650       0.00000000
Si       1.35954711       1.35861858      -1.35735039       0.00000000
Si       0.00141723      -2.71378368       2.71329324       0.00000000
Si       0.00112401       2.71469592       2.71380819       0.00000000
Si      -2.71481972       0.00114030       2.71432315       0.00000000
Si       2.71432125       2.71482624       0.00003433       0.00000000
Si      -2.71592093       2.71453302      -0.00051495       0.00000000
Si       2.71590138       0.00112401       2.71459779       0.00000000
