10
Lattice="16.28999089631971 0.0 0.0 0.0 16.28999089631971 0.0 0.0 0.0 34.33025523377368" Properties=species:S:1:pos:R:3:initial_magmoms:R:1 pbc="T T T"
Si       1.35555606       1.35630540      -1.35769369       0.00000000
Si       1.35291708      -1.35785295       1.35934155       0.00000000
Si      -1.35922131      -1.35855342      -1.35731606       0.00000000
Si      -1.36249560       1.35671265       1.35635481       0.00000000
Si      -0.00158013       2.71370223      -2.71456346       0.00000000
Si       2.71375110      -0.00162900      -2.71452913       0.00000000
Si      -2.71477737       2.71357191      -0.00078960       0.00000000
Si      -2.71448415      -2.71490769      -0.00130455       0.00000000
Si       2.71451673       2.71533123      -0.00092692       0.00000000
Si      -2.71590138      -0.00112401      -2.71459779       0.00000000
