10
Lattice="16.28999089631971 0.0 0.0 0.0 16.28999089631971 0.0 0.0 0.0 34.33025523377368" Properties=species:S:1:pos:R:3:initial_magmoms:R:1 pbc="T T T"
Si      -1.59350409       0.06193458       1.92496715       0.00000000
Si       1.40757003      -1.67058837       1.22967610       0.00000000
Si      -1.28041029      -0.12849552      -2.32930912       0.00000000
Si       2.55658518       1.31533605      -0.45580305       0.00000000
Si      -0.20932650       3.22680465      -0.50771043       0.00000000
Si       1.45674954       2.14790166      -2.34836242       0.00000000
Si      -2.35714671      -2.15445024       1.85575731       0.00000000
Si      -0.30990096      -3.37563009       1.56683372       0.00000000
Si      -2.60959284       2.69187363      -0.18040559       0.00000000
Si       2.87410986      -2.50044984      -0.47732814       0.00000000
