10
Lattice="16.28999089631971 0.0 0.0 0.0 16.28999089631971 0.0 0.0 0.0 34.33025523377368" Properties=species:S:1:pos:R:3:initial_magmoms:R:1 pbc="T T T"
Si       0.15818730      -1.26573300       1.95943474       0.00000000
Si      -2.18654221       0.83895129      -0.15833123       0.00000000
Si       0.73535341      -0.91831617      -2.07430384       0.00000000
Si       1.78104109       1.46660499       0.62014208       0.00000000
Si       2.00491456       2.35905264      -1.52004156       0.00000000
Si       1.60447378      -2.92438799      -1.10313471       0.00000000
Si      -2.01746830       2.63627586       1.31553612       0.00000000
Si       1.77032227      -2.87491526       1.24388883       0.00000000
Si       1.02168274       0.33808266       3.52489526       0.00000000
Si      -2.25507424       2.02463523      -2.14481822       0.00000000
