10
Lattice="16.28999089631971 0.0 0.0 0.0 16.28999089631971 0.0 0.0 0.0 34.33025523377368" Properties=species:S:1:pos:R:3:initial_magmoms:R:1 pbc="T T T"
Si      -2.40026634      -0.53493102       0.32730484       0.00000000
Si      -0.70260399       1.57801230      -1.84219686       0.00000000
Si       1.66607604      -1.07890299      -1.84065199       0.00000000
Si       0.79881273       0.90448596       2.60659475       0.00000000
Si       0.20932650      -3.22680465       0.50771043       0.00000000
Si       2.76591168      -1.91146860       0.05190737       0.00000000
Si      -1.92775860       3.09120557      -0.48975569       0.00000000
Si      -3.15348336       1.67591520       0.94734392       0.00000000
Si      -2.82957300      -1.53960048      -1.93739471       0.00000000
Si       1.55913219       3.02747795       1.82479141       0.00000000
