10
Lattice="16.28999089631971 0.0 0.0 0.0 16.28999089631971 0.0 0.0 0.0 34.33025523377368" Properties=species:S:1:pos:R:3:initial_magmoms:R:1 pbc="T T T"
Si      -0.75316815       0.20378790      -2.18268452       0.00000000
Si      -1.36661697       1.51078347       1.13231544       0.00000000
Si       2.29830723       0.40651695       0.15702668       0.00000000
Si      -0.78421689      -2.28024162       0.62460501       0.00000000
Si       0.41643756      -0.97570584       2.67401940       0.00000000
Si      -2.96520354      -0.10008576      -1.43720261       0.00000000
Si      -0.12044826       3.42976176       0.40574951       0.00000000
Si       0.35100063      -1.68810012      -3.00643945       0.00000000
Si       0.33024717      -3.25148400      -1.21680225       0.00000000
Si       2.38777191       0.42428934       2.51469260       0.00000000
