10
Lattice="16.28999089631971 0.0 0.0 0.0 16.28999089631971 0.0 0.0 0.0 34.33025523377368" Properties=species:S:1:pos:R:3:initial_magmoms:R:1 pbc="T T T"
Si      -1.35731538       1.35922063      -1.35384870       0.00000000
Si       1.35738054       1.35748086       1.35735039       0.00000000
Si      -1.35716877      -1.35750570       1.35796833       0.00000000
Si       1.35778779      -1.36047048      -1.35789967       0.00000000
Si      -2.71300176       2.71189010      -0.00223147       0.00000000
Si      -2.71252935      -2.71385997       0.00044629       0.00000000
Si       2.71437012      -2.71325724      -0.00102991       0.00000000
Si       0.00048870      -2.71496769       2.71442614       0.00000000
Si       0.00065160       2.71456166       2.71487243       0.00000000
Si      -2.71480995      -0.00005325       2.71497542       0.00000000
