10
Lattice="16.28999089631971 0.0 0.0 0.0 16.28999089631971 0.0 0.0 0.0 34.33025523377368" Properties=species:S:1:pos:R:3:initial_magmoms:R:1 pbc="T T T"
Si       1.29039606      -1.46636064       1.28882716       0.00000000
Si       1.53020115       0.98174943      -1.54372945       0.00000000
Si      -1.01110401       1.42682481       1.73790148       0.00000000
Si      -1.05062355      -1.74230281      -1.57792240       0.00000000
Si      -2.23510203       2.49210936      -0.11064647       0.00000000
Si       3.25013193      -0.08511525       1.34554078       0.00000000
Si      -2.13311034      -0.45720003       2.76156160       0.00000000
Si       0.22937949       2.29452795      -3.04070107       0.00000000
Si       3.14462160       2.20333653      -0.11538405       0.00000000
Si      -0.11885184      -1.69428348       3.51373792       0.00000000
