10
Lattice="16.28999089631971 0.0 0.0 0.0 16.28999089631971 0.0 0.0 0.0 34.33025523377368" Properties=species:S:1:pos:R:3:initial_magmoms:R:1 pbc="T T T"
Si      -2.00125908      -1.23070950       0.27838420       0.00000000
Si       1.67479119      -1.45002177      -0.83086130       0.00000000
Si      -0.17454735       0.50235102       2.31032448       0.00000000
Si       0.32024511       2.10861018      -1.07821093       0.00000000
Si      -3.29044968       0.63086283       0.92015435       0.00000000
Si       2.02325058       3.16011339       0.15318168       0.00000000
Si      -1.46640951      -2.86749123       1.94501603       0.00000000
Si       0.76344714      -2.31502077      -2.91542989       0.00000000
Si      -2.20261977       1.73058444       2.66808027       0.00000000
Si       3.66528258      -0.20768121      -1.26136294       0.00000000
