10
Lattice="16.28999089631971 0.0 0.0 0.0 16.28999089631971 0.0 0.0 0.0 34.33025523377368" Properties=species:S:1:pos:R:3:initial_magmoms:R:1 pbc="T T T"
Si       1.16510967       0.94201812       1.77473787       0.00000000
Si      -0.51823377      -2.17653038       0.79042024       0.00000000
Si       1.55683530      -0.00609246      -1.79118207       0.00000000
Si      -1.85849352       1.38797316      -0.55189349       0.00000000
Si      -0.55996875       3.17886318      -1.60109534       0.00000000
Si       0.57186045      -1.58004171      -3.27026761       0.00000000
Si      -0.12408093       2.80359045       2.41650802       0.00000000
Si      -2.94977691       0.21533751      -2.23435158       0.00000000
Si       1.13899680       2.09256453      -2.93194276       0.00000000
Si      -1.83334176      -3.30324452      -0.81197965       0.00000000
