10
Lattice="16.28999089631971 0.0 0.0 0.0 16.28999089631971 0.0 0.0 0.0 34.33025523377368" Properties=species:S:1:pos:R:3:initial_magmoms:R:1 pbc="T T T"
Si      -0.83825082       2.22703848       0.20749218       0.00000000
Si       1.80898821       0.20336436      -1.63360611       0.00000000
Si      -1.99583451      -1.04412384      -1.18532138       0.00000000
Si       1.03014702       0.27675081       2.61591923       0.00000000
Si      -0.24128748       2.27690217       2.57806667       0.00000000
Si      -0.60233904       2.81259882      -2.15261120       0.00000000
Si       1.56890619       2.23980984      -2.76513195       0.00000000
Si      -2.17375389      -0.08286723      -3.27023328       0.00000000
Si       3.91642551       0.34722135      -0.39768190       0.00000000
Si       1.63657485      -1.29851988      -3.45311065       0.00000000
