10
Lattice="16.28999089631971 0.0 0.0 0.0 16.28999089631971 0.0 0.0 0.0 34.33025523377368" Properties=species:S:1:pos:R:3:initial_magmoms:R:1 pbc="T T T"
Si      -0.17791938       0.96125661      -2.08491190       0.00000000
Si       0.37377405      -2.22008984      -0.81544701       0.00000000
Si      -2.05995195       0.77732622       1.17344311       0.00000000
Si       1.99583451       1.04412384       1.18532138       0.00000000
Si      -2.17714221      -0.11927538      -2.65496610       0.00000000
Si       0.34984404      -3.33701369       1.36222529       0.00000000
Si       1.15758369       3.27116232       1.39281356       0.00000000
Si       2.63811663      -2.24833670      -1.49456850       0.00000000
Si      -0.49650291       3.23711622      -2.19627931       0.00000000
Si       1.69938909       0.54219636      -3.52568485       0.00000000
