10
Lattice="16.28999089631971 0.0 0.0 0.0 16.28999089631971 0.0 0.0 0.0 34.33025523377368" Properties=species:S:1:pos:R:3:initial_magmoms:R:1 pbc="T T T"
Si       1.34337114       1.35096228       1.36641358       0.00000000
Si      -1.34990343      -1.34480466       1.36981228       0.00000000
Si       1.35702216      -1.35404109      -1.35487861       0.00000000
Si      -1.35705474       1.35738054      -1.35432933       0.00000000
Si      -2.53922004       0.21582621       2.72860454       0.00000000
Si       0.00006516      -2.71432125      -2.71270962       0.00000000
Si       2.71492398       0.00055386      -2.71264096       0.00000000
Si      -2.71528236       0.00099369      -2.71277828       0.00000000
Si      -0.00021177       2.71567332      -2.71294994       0.00000000
Si       2.71371852       2.71515204       0.00796462       0.00000000
