10
Lattice="16.28999089631971 0.0 0.0 0.0 16.28999089631971 0.0 0.0 0.0 34.33025523377368" Properties=species:S:1:pos:R:3:initial_magmoms:R:1 pbc="T T T"
Si      -0.36685080       2.27872665       0.25651581       0.00000000
Si       2.17124523      -0.57278898      -0.61252076       0.00000000
Si      -1.88999838      -0.61960644      -1.22898949       0.00000000
Si      -0.23591178      -0.58556034       2.36010338       0.00000000
Si      -2.43027252       0.22380831       2.31348286       0.00000000
Si      -3.42972918       0.42997455       0.22805601       0.00000000
Si       1.82832444       2.93698926      -0.20062612       0.00000000
Si      -1.57141485      -2.89546605      -1.11762208       0.00000000
Si       3.30035400       1.19368233       0.40887357       0.00000000
Si       2.41132725      -2.60923446       0.51900509       0.00000000
