10
Lattice="16.28999089631971 0.0 0.0 0.0 16.28999089631971 0.0 0.0 0.0 34.33025523377368" Properties=species:S:1:pos:R:3:initial_magmoms:R:1 pbc="T T T"
Si       0.00858483      -1.87281243      -1.38196520       0.00000000
Si       0.05729193      -0.47939841       2.29549864       0.00000000
Si       1.73363067       1.32620148      -0.92410233       0.00000000
Si      -1.96310301       1.43410644       0.07762075       0.00000000
Si      -1.69557723      -2.32199452       2.09803777       0.00000000
Si      -1.45950255       2.77371459      -1.85483040       0.00000000
Si      -1.84428212      -3.14002619      -0.40128658       0.00000000
Si       0.70501491       3.43101609      -1.07803928       0.00000000
Si      -0.70431444       1.48064697       3.43734417       0.00000000
Si      -0.41523210      -1.33292925      -3.69726756       0.00000000
