10
Lattice="16.28999089631971 0.0 0.0 0.0 16.28999089631971 0.0 0.0 0.0 34.33025523377368" Properties=species:S:1:pos:R:3:initial_magmoms:R:1 pbc="T T T"
Si       1.45184625      -1.30784265      -1.29296053       0.00000000
Si       1.35883035       1.33883667       1.37261363       0.00000000
Si      -1.35843939      -1.37914398       1.36753275       0.00000000
Si      -1.29920895       1.42040559      -1.46071541       0.00000000
Si      -2.18207808      -0.24044040      -3.07245112       0.00000000
Si       2.69848737       2.68901378      -0.00620005       0.00000000
Si      -2.71987614       2.67845786      -0.00234819       0.00000000
Si       0.00314397       2.69150615       2.72423086       0.00000000
Si      -2.71704168      -2.71935486       0.00566450       0.00000000
Si      -2.71358820      -0.01938604       2.72896844       0.00000000
