10
Lattice="16.28999089631971 0.0 0.0 0.0 16.28999089631971 0.0 0.0 0.0 34.33025523377368" Properties=species:S:1:pos:R:3:initial_magmoms:R:1 pbc="T T T"
Si      -0.20228922       1.01121804       2.12253788       0.00000000
Si      -1.76497263       0.99017136      -1.21958300       0.00000000
Si      -0.58800384      -2.19330189       0.65704712       0.00000000
Si       2.18678589       0.39250755      -0.90027712       0.00000000
Si       1.35931905       0.13688487      -3.11609035       0.00000000
Si       2.07360297       0.74749923       2.79599487       0.00000000
Si      -3.40985538       1.38996054       0.45690162       0.00000000
Si       0.08377947      -2.34571113       2.90825487       0.00000000
Si      -1.00465317       3.11316335      -2.00138634       0.00000000
Si      -2.09474739       2.51667468       2.05930151       0.00000000
