10
Lattice="16.28999089631971 0.0 0.0 0.0 16.28999089631971 0.0 0.0 0.0 34.33025523377368" Properties=species:S:1:pos:R:3:initial_magmoms:R:1 pbc="T T T"
Si      -2.20232655      -0.15758946       0.92667710       0.00000000
Si       0.02393001       1.11692385      -2.17767230       0.00000000
Si       1.18097613       0.95184099       2.08975246       0.00000000
Si       0.40669614      -2.56530033      -0.32957063       0.00000000
Si      -1.33441164      -1.49666004       2.60035114       0.00000000
Si      -0.34984404       3.33701369      -1.36222529       0.00000000
Si      -3.32959455      -1.38303729      -0.76810556       0.00000000
Si       3.32112375      -0.54915219      -1.56079160       0.00000000
Si      -0.33704010       0.21681990       3.72327073       0.00000000
Si       2.28827259       1.08867699      -2.85679379       0.00000000
