10
Lattice="16.28999089631971 0.0 0.0 0.0 16.28999089631971 0.0 0.0 0.0 34.33025523377368" Properties=species:S:1:pos:R:3:initial_magmoms:R:1 pbc="T T T"
Si      -1.05831243       1.51459533       1.50018150       0.00000000
Si      -2.02256640      -0.78677442      -1.06823215       0.00000000
Si       0.84007530       0.80715321      -2.21203488       0.00000000
Si       1.64555064      -1.22668587       1.48244304       0.00000000
Si      -3.29400090       1.21337694      -1.10608471       0.00000000
Si      -2.41357527       0.13282866       2.87239690       0.00000000
Si      -2.62477512      -2.72783706       0.07584244       0.00000000
Si      -2.28504717       3.08868174       0.05937764       0.00000000
Si       0.30004551      -2.58398170       2.87510899       0.00000000
Si       3.11599585       1.43669655      -1.84312175       0.00000000
