10
Lattice="16.28999089631971 0.0 0.0 0.0 16.28999089631971 0.0 0.0 0.0 34.33025523377368" Properties=species:S:1:pos:R:3:initial_magmoms:R:1 pbc="T T T"
Si       0.49717080       1.02613968       2.00595226       0.00000000
Si      -1.95973587      -1.38124539      -0.05671361       0.00000000
Si       1.74053763      -1.73609765       0.03673339       0.00000000
Si      -0.10551033       2.28845178      -1.46092483       0.00000000
Si      -0.66129255      -2.94165539      -1.65564614       0.00000000
Si      -3.25013193       0.08511525      -1.34554078       0.00000000
Si      -1.71993078       1.06686468      -2.88927023       0.00000000
Si       0.93325410      -1.80523241      -3.00286910       0.00000000
Si       2.75134842       1.77701094       1.75688612       0.00000000
Si      -0.64065312       3.07073016       2.09476468       0.00000000
