10
Lattice="16.28999089631971 0.0 0.0 0.0 16.28999089631971 0.0 0.0 0.0 34.33025523377368" Properties=species:S:1:pos:R:3:initial_magmoms:R:1 pbc="T T T"
Si       0.39739747      -2.27214453      -0.14717389       0.00000000
Si       1.87787440       0.97286323      -1.02448405       0.00000000
Si      -1.94528664      -0.04425993      -1.34457953       0.00000000
Si      -0.36494487       0.72422896       2.23043793       0.00000000
Si       0.86178402       2.71346602       1.96166621       0.00000000
Si      -1.15025319      -2.99431281       1.52014455       0.00000000
Si       2.74136984       2.57667890       0.54097646       0.00000000
Si      -1.72418247      -1.84554201      -2.91707775       0.00000000
Si       0.37385550      -2.90888805      -2.52128401       0.00000000
Si       3.49000937      -0.63631902      -1.74002996       0.00000000
