10
Lattice="16.28999089631971 0.0 0.0 0.0 16.28999089631971 0.0 0.0 0.0 34.33025523377368" Properties=species:S:1:pos:R:3:initial_magmoms:R:1 pbc="T T T"
Si      -0.99429273      -1.99394065       0.77322077       0.00000000
Si       0.17241336       1.50188424       1.81950454       0.00000000
Si       2.30884686      -0.29130267      -0.72776749       0.00000000
Si      -1.93302027       0.79659240      -1.25789558       0.00000000
Si      -0.72549144      -3.24349768      -1.21899938       0.00000000
Si      -0.06766866       3.53832972       0.68797870       0.00000000
Si       3.22585855      -1.54154551       1.16056926       0.00000000
Si      -1.11943251      -2.10855709      -3.21231811       0.00000000
Si      -3.81032874       1.21565265       0.18287737       0.00000000
Si      -1.63657485       1.29851988       3.45311065       0.00000000
