10
Lattice="16.28999089631971 0.0 0.0 0.0 16.28999089631971 0.0 0.0 0.0 34.33025523377368" Properties=species:S:1:pos:R:3:initial_magmoms:R:1 pbc="T T T"
Si       0.32322618      -2.30158478       0.34004137       0.00000000
Si      -0.02363679       1.52345709       1.86979840       0.00000000
Si      -2.10743730      -0.14385699      -1.23592421       0.00000000
Si       1.72926236       0.49894641      -1.79801379       0.00000000
Si       2.37110465      -2.42113220       1.75980420       0.00000000
Si       0.94600789      -3.18728674      -1.89485950       0.00000000
Si      -2.34751932       1.89258849      -2.36745005       0.00000000
Si       2.25228376       2.15300043       2.23871153       0.00000000
Si      -3.91642551      -0.34722135       0.39768190       0.00000000
Si      -0.49653549       3.85105374       0.98088460       0.00000000
