10
Lattice="16.28999089631971 0.0 0.0 0.0 16.28999089631971 0.0 0.0 0.0 34.33025523377368" Properties=species:S:1:pos:R:3:initial_magmoms:R:1 pbc="T T T"
Si      -1.35702216       1.35404109       1.35487861       0.00000000
Si       1.35790182       1.35459495      -1.35776235       0.00000000
Si      -1.35695700      -1.36028016      -1.35783101       0.00000000
Si       1.35734796      -1.36052451       1.36112672       0.00000000
Si      -2.71407690       2.71142163       0.00054928       0.00000000
Si      -0.01365102       2.70500337       2.72129219       0.00000000
Si       0.00050499       2.71215468      -2.71521573       0.00000000
Si       2.71529865       2.71301805      -0.00061794       0.00000000
Si       2.71536381      -0.00096111      -2.71442614       0.00000000
Si      -2.71399545      -2.71698141      -0.00030897       0.00000000
