10
Lattice="16.28999089631971 0.0 0.0 0.0 16.28999089631971 0.0 0.0 0.0 34.33025523377368" Properties=species:S:1:pos:R:3:initial_magmoms:R:1 pbc="T T T"
Si       1.35729441      -1.35524655      -1.35982217       0.00000000
Si      -1.35949707       1.35936792      -1.35941021       0.00000000
Si      -1.34535735      -1.37086866       1.37121982       0.00000000
Si       1.35497635       1.35889551       1.37997404       0.00000000
Si      -2.69716671      -0.00643455       2.71047816       0.00000000
Si       2.70996389      -2.71254564      -0.00130455       0.00000000
Si       2.71252142       0.00174303      -2.71597100       0.00000000
Si      -0.00232204      -2.71327869      -2.71573069       0.00000000
Si       2.71506266       2.71596654       0.00168218       0.00000000
Si      -2.71744776      -2.71417464       0.00233446       0.00000000
