10
Lattice="16.28999089631971 0.0 0.0 0.0 16.28999089631971 0.0 0.0 0.0 34.33025523377368" Properties=species:S:1:pos:R:3:initial_magmoms:R:1 pbc="T T T"
Si      -0.13040145      -2.20180527       0.77555523       0.00000000
Si       0.20805588      -0.47423448      -2.29058457       0.00000000
Si      -1.36775727       1.51824429       1.17910761       0.00000000
Si       2.30285214      -0.39208401       0.58227578       0.00000000
Si       2.01774456      -2.67152742       0.04099035       0.00000000
Si       2.01916179      -2.04470451      -2.23126186       0.00000000
Si      -0.76404987       3.56376330       0.24587343       0.00000000
Si      -1.98974205      -3.13199685      -0.13344178       0.00000000
Si      -0.76743819       1.14406299       3.49519957       0.00000000
Si      -0.42451740      -2.36571525       3.08330494       0.00000000
