10
Lattice="16.28999089631971 0.0 0.0 0.0 16.28999089631971 0.0 0.0 0.0 34.33025523377368" Properties=species:S:1:pos:R:3:initial_magmoms:R:1 pbc="T T T"
Si      -1.37419345       1.17503028      -1.58623033       0.00000000
Si      -1.28846407      -1.48304160       1.41979716       0.00000000
Si       0.84957237       1.92652056       1.35697276       0.00000000
Si       1.34280099      -1.51790220      -1.57218925       0.00000000
Si      -2.63335278       2.67006132      -0.18689401       0.00000000
Si       2.72342736       2.71230129      -0.02839114       0.00000000
Si      -0.01410714       2.53210131      -2.96452219       0.00000000
Si       0.33588351      -2.70541062       2.81491085       0.00000000
Si      -2.70562711      -2.89474929      -0.03254510       0.00000000
Si       2.88925956      -2.72556135      -0.15805658       0.00000000
