10
Lattice="16.28999089631971 0.0 0.0 0.0 16.28999089631971 0.0 0.0 0.0 34.33025523377368" Properties=species:S:1:pos:R:3:initial_magmoms:R:1 pbc="T T T"
Si      -2.21252409      -0.46126764      -0.56325681       0.00000000
Si       0.49616082      -0.73194228       2.15717712       0.00000000
Si      -0.28178442       2.35107054       0.14813513       0.00000000
Si       1.92071222      -0.24614190      -1.39247026       0.00000000
Si       1.62043213       1.11444777       2.95367382       0.00000000
Si       3.02932817       1.77295473      -0.72941534       0.00000000
Si       1.26586624       3.07323882      -1.51918330       0.00000000
Si      -3.49874991       1.00049922       0.75375551       0.00000000
Si       0.20885409       2.83643109       2.41915145       0.00000000
Si      -2.81623149      -2.50678665       0.36997737       0.00000000
