10
Lattice="16.28999089631971 0.0 0.0 0.0 16.28999089631971 0.0 0.0 0.0 34.33025523377368" Properties=species:S:1:pos:R:3:initial_magmoms:R:1 pbc="T T T"
Si      -1.79957489       1.44715473       0.03117189       0.00000000
Si       1.27682486      -1.09162548      -1.63491066       0.00000000
Si       1.25403678       1.50446295       1.44255813       0.00000000
Si      -1.17350132      -1.73949507       1.48811441       0.00000000
Si      -0.50596970       3.11152032       1.59405763       0.00000000
Si      -1.10257466      -0.39490218       3.41819676       0.00000000
Si      -2.02162388       2.16153639      -2.15254254       0.00000000
Si       2.90117244      -2.31399450      -0.23979697       0.00000000
Si       0.28038185      -3.54603978       1.76165803       0.00000000
Si       0.96592695       0.83303802       3.76246076       0.00000000
