10
Lattice="16.28999089631971 0.0 0.0 0.0 16.28999089631971 0.0 0.0 0.0 34.33025523377368" Properties=species:S:1:pos:R:3:initial_magmoms:R:1 pbc="T T T"
Si      -1.35257499       1.35638100      -1.35954753       0.00000000
Si       1.36146511      -1.35917244      -1.35827731       0.00000000
Si      -1.35260757      -1.36607940       1.37506481       0.00000000
Si       1.36637166       1.37544356       1.37362294       0.00000000
Si      -2.71122615       2.71250396       0.00236879       0.00000000
Si      -2.70922248      -2.71515204      -0.00037763       0.00000000
Si      -2.71098180      -0.00210234      -2.71648595       0.00000000
Si       0.00389957       2.71339991      -2.71569636       0.00000000
Si       2.71618550       2.71413296      -0.00127022       0.00000000
Si       0.00359617      -2.71665072      -2.71655461       0.00000000
