10
Lattice="16.28999089631971 0.0 0.0 0.0 16.28999089631971 0.0 0.0 0.0 34.33025523377368" Properties=species:S:1:pos:R:3:initial_magmoms:R:1 pbc="T T T"
Si      -1.53588636       1.00763424      -1.40699197       0.00000000
Si      -1.87960536      -0.63615708       1.30214731       0.00000000
Si       1.32346476      -1.46315151      -1.34231373       0.00000000
Si       0.86594382       2.21319198       0.28538757       0.00000000
Si       0.05866029       2.14405722      -2.75421493       0.00000000
Si       1.91065410       2.03207976       2.37019648       0.00000000
Si      -1.05213852      -0.38053440       3.51796054       0.00000000
Si      -2.83432968       2.56804424       0.19194056       0.00000000
Si       2.29991994      -1.82749365       2.47202007       0.00000000
Si      -2.69459406      -0.54817479      -2.73100766       0.00000000
