10
Lattice="16.28999089631971 0.0 0.0 0.0 16.28999089631971 0.0 0.0 0.0 34.33025523377368" Properties=species:S:1:pos:R:3:initial_magmoms:R:1 pbc="T T T"
Si      -0.59535063       0.69651153      -2.18210090       0.00000000
Si       2.09803797      -1.06334604       0.39579373       0.00000000
Si      -0.22110417       1.80128208       1.57249822       0.00000000
Si      -1.92420738      -0.98766270       1.06695060       0.00000000
Si      -2.06904177       0.75251655       2.66296506       0.00000000
Si      -1.81102446      -1.34265438      -2.62932139       0.00000000
Si       2.12157994      -0.42660252       2.76990386       0.00000000
Si      -0.73316403       3.68074898       0.20532937       0.00000000
Si      -1.64450808       2.81574998      -1.87923922       0.00000000
Si       1.72418247       1.84554201       2.91707775       0.00000000
