10
Lattice="16.28999089631971 0.0 0.0 0.0 16.28999089631971 0.0 0.0 0.0 34.33025523377368" Properties=species:S:1:pos:R:3:initial_magmoms:R:1 pbc="T T T"
Si       1.03285116      -1.63782918       1.29600219       0.00000000
Si       0.99429273       1.99394065      -0.77322077       0.00000000
Si      -2.26434258       0.02824686       0.67912149       0.00000000
Si       0.26880129      -1.24955703      -1.99222015       0.00000000
Si       3.00846978      -1.53054324       0.05973468       0.00000000
Si      -0.93872754       2.79053306      -2.03111636       0.00000000
Si      -0.19103283      -3.58150311       0.72982730       0.00000000
Si      -2.63811663       2.24833670       1.49456850       0.00000000
Si      -0.69913422      -3.36647511      -1.60566126       0.00000000
Si      -2.28827259      -1.08867699       2.85679379       0.00000000
