10
Lattice="16.28999089631971 0.0 0.0 0.0 16.28999089631971 0.0 0.0 0.0 34.33025523377368" Properties=species:S:1:pos:R:3:initial_magmoms:R:1 pbc="T T T"
Si      -1.35704822      -1.35581670       1.35711008       0.00000000
Si       1.35777150      -1.35695700      -1.35721307       0.00000000
Si       1.35889551       1.35773892       1.35659512       0.00000000
Si      -1.35814943       1.35757602      -1.35772802       0.00000000
Si       2.71117728       0.00087966       2.71373953       0.00000000
Si      -2.71411202       0.00138465      -2.71466645       0.00000000
Si       2.71445157      -2.71438641       0.00006866       0.00000000
Si      -2.71481021      -2.71503801       0.00017165       0.00000000
Si       2.71487511       2.71521720      -0.00010299       0.00000000
Si      -0.00057015      -2.71388142      -2.71706957       0.00000000
