10
Lattice="16.28999089631971 0.0 0.0 0.0 16.28999089631971 0.0 0.0 0.0 34.33025523377368" Properties=species:S:1:pos:R:3:initial_magmoms:R:1 pbc="T T T"
Si       1.35725022      -1.35536058      -1.36212230       0.00000000
Si      -1.35898673       1.35956340      -1.36109239       0.00000000
Si      -1.36008631      -1.35707103       1.37829186       0.00000000
Si       1.35770634       1.36542780       1.37520213       0.00000000
Si      -2.61924564       0.13796001       2.77762817       0.00000000
Si       2.70764235      -2.71412577      -0.00044629       0.00000000
Si       2.70923877       2.71625976      -0.00446294       0.00000000
Si       2.71251306       0.00099369      -2.71813381       0.00000000
Si      -2.71506266      -2.71596654      -0.00168218       0.00000000
Si      -0.00254124      -2.71422351      -2.71765318       0.00000000
