10
Lattice="16.28999089631971 0.0 0.0 0.0 16.28999089631971 0.0 0.0 0.0 34.33025523377368" Properties=species:S:1:pos:R:3:initial_magmoms:R:1 pbc="T T T"
Si      -1.96943819       0.22271688       1.34440788       0.00000000
Si       0.83748519      -2.25083817      -0.15070990       0.00000000
Si       1.54018692       1.45122723       1.30616395       0.00000000
Si      -0.96431913      -0.76457115      -2.62121944       0.00000000
Si      -3.06707210      -1.75065372       0.63964167       0.00000000
Si      -1.30706562      -3.35771109       0.48814217       0.00000000
Si       2.47565646       2.73973365      -0.55247711       0.00000000
Si       2.72810259      -2.10659022       1.48368580       0.00000000
Si       0.85375890      -2.54423736      -2.65215102       0.00000000
Si      -1.21438366       0.38670831       3.59080938       0.00000000
