10
Lattice="16.28999089631971 0.0 0.0 0.0 16.28999089631971 0.0 0.0 0.0 34.33025523377368" Properties=species:S:1:pos:R:3:initial_magmoms:R:1 pbc="T T T"
Si      -1.61683137      -0.59023557       1.63769141       0.00000000
Si       0.04598667       2.12729481      -1.10186449       0.00000000
Si       2.22697332      -0.05286105       0.95994313       0.00000000
Si      -0.98670159      -1.45156932      -1.73361020       0.00000000
Si      -2.36857903       0.29800926      -2.67910029       0.00000000
Si       3.34143738      -1.02410343      -0.88146413       0.00000000
Si      -3.23024184       1.08945891       1.30214731       0.00000000
Si       3.01119021       2.22738057       0.33533812       0.00000000
Si       2.25802206       2.43116847      -1.84734640       0.00000000
Si      -2.42753743      -2.76206724       1.05582759       0.00000000
