10
Lattice="16.28999089631971 0.0 0.0 0.0 16.28999089631971 0.0 0.0 0.0 34.33025523377368" Properties=species:S:1:pos:R:3:initial_magmoms:R:1 pbc="T T T"
Si      -1.64719595      -1.01744082       1.34471685       0.00000000
Si       1.28768117      -1.39132890      -1.42892901       0.00000000
Si       1.23579752       1.66651587       1.18865142       0.00000000
Si      -1.44311483       1.32629922      -1.44142523       0.00000000
Si      -0.48648458       3.38967600       1.36607028       0.00000000
Si      -2.76604202      -2.62216872      -0.02818516       0.00000000
Si       2.62838238      -0.02533095      -2.81525415       0.00000000
Si       2.75723628      -2.71531494       0.09876820       0.00000000
Si      -0.09050726       2.69237862      -2.81649004       0.00000000
Si      -2.91200042       2.58976791      -0.06718435       0.00000000
