10
Lattice="10.86 0.0 0.0 0.0 10.86 0.0 0.0 0.0 10.86" Properties=species:S:1:pos:R:3:initial_magmoms:R:1 pbc="T T T"
Si       1.05029232       1.49050242       1.09674054       0.00000000
Si      -1.30932504      -1.32190092       1.14900972       0.00000000
Si       1.05029232      -1.22449758      -1.61825946       0.00000000
Si      -1.66470768       1.49050242      -1.61825946       0.00000000
Si       2.27307402      -0.16620144       2.59358520       0.00000000
Si       2.26021578      -2.66029818      -0.56318874       0.00000000
Si      -2.89542804      -0.04177842       2.14641384       0.00000000
Si       2.40779232       2.84800242      -0.26075946       0.00000000
Si      -0.30720768       2.84800242       2.45424054       0.00000000
Si       2.40779232       0.13300242      -2.97575946       0.00000000
