10
Lattice="10.86 0.0 0.0 0.0 10.86 0.0 0.0 0.0 10.86" Properties=species:S:1:pos:R:3:initial_magmoms:R:1 pbc="T T T"
Si      -1.20992346       1.43580060      -1.05507072       0.00000000
Si       1.50507654      -1.27919940      -1.05507072       0.00000000
Si       1.50507654       1.43580060       1.65992928       0.00000000
Si      -2.56742346       0.07830060      -2.41257072       0.00000000
Si      -2.26021578       2.66029818       0.56318874       0.00000000
Si      -2.44061124      -2.53916574       0.44916960       0.00000000
Si       0.14757654      -2.63669940      -2.41257072       0.00000000
Si       0.14757654       2.79330060      -2.41257072       0.00000000
Si       2.86257654       0.07830060      -2.41257072       0.00000000
Si       2.86257654      -2.63669940       0.30242928       0.00000000
