10
Lattice="10.86 0.0 0.0 0.0 10.86 0.0 0.0 0.0 10.86" Properties=species:S:1:pos:R:3:initial_magmoms:R:1 pbc="T T T"
Si      -1.35750000       1.35750000       1.35750000       0.00000000
Si      -1.35750000      -1.35750000      -1.35750000       0.00000000
Si       1.31018298      -1.49409708       1.29306762       0.00000000
Si       1.48427964       1.18271916      -1.66532670       0.00000000
Si       0.00000000       2.71500000       2.71500000       0.00000000
Si      -2.71500000       2.71500000       0.00000000       0.00000000
Si      -2.71500000       0.00000000      -2.71500000       0.00000000
Si       0.00000000       2.71500000      -2.71500000       0.00000000
Si       0.00000000      -2.71500000       2.71500000       0.00000000
Si      -2.71500000      -2.71500000       0.00000000       0.00000000
