10
Lattice="10.86 0.0 0.0 0.0 10.86 0.0 0.0 0.0 10.86" Properties=species:S:1:pos:R:3:initial_magmoms:R:1 pbc="T T T"
Si      -1.18234992      -1.42222560      -1.42226904       0.00000000
Si       1.53265008      -1.42222560       1.29273096       0.00000000
Si       1.53265008       1.29277440      -1.42226904       0.00000000
Si      -2.18647638       2.62021392       0.14663172       0.00000000
Si      -2.41775094      -0.09895632       2.56280796       0.00000000
Si      -2.53984992      -2.77972560      -0.06476904       0.00000000
Si      -2.53984992      -0.06472560      -2.77976904       0.00000000
Si       0.28300074       2.63231196       2.74143324       0.00000000
Si       0.17515008      -2.77972560       2.65023096       0.00000000
Si       0.17515008       2.65027440      -2.77976904       0.00000000
