10
Lattice="10.86 0.0 0.0 0.0 10.86 0.0 0.0 0.0 10.86" Properties=species:S:1:pos:R:3:initial_magmoms:R:1 pbc="T T T"
Si      -1.22260794      -1.38210876       1.30902096       0.00000000
Si      -1.22260794       1.33289124      -1.40597904       0.00000000
Si       1.49239206       1.33289124       1.30902096       0.00000000
Si      -2.58010794      -0.02460876       2.66652096       0.00000000
Si      -2.58010794       2.69039124      -0.04847904       0.00000000
Si      -2.45561976      -0.21461532      -2.80158678       0.00000000
Si       2.65760490      -2.64172758      -0.19664202       0.00000000
Si      -2.85639720      -2.48396436       0.01651806       0.00000000
Si       0.13489206       2.69039124       2.66652096       0.00000000
Si       0.13489206      -2.73960876       2.66652096       0.00000000
