10
Lattice="10.86 0.0 0.0 0.0 10.86 0.0 0.0 0.0 10.86" Properties=species:S:1:pos:R:3:initial_magmoms:R:1 pbc="T T T"
Si      -1.41476478       1.20933702      -1.38803832       0.00000000
Si       1.30023522      -1.50566298      -1.38803832       0.00000000
Si      -1.41476478      -1.50566298       1.32696168       0.00000000
Si       2.55934362       2.38018620       0.03835752       0.00000000
Si       2.55426114      -0.30814164       2.67629496       0.00000000
Si      -2.69704842       2.60454294       0.05983860       0.00000000
Si      -0.05726478       2.56683702      -2.74553832       0.00000000
Si       2.65773522      -0.14816298      -2.74553832       0.00000000
Si      -2.77226478      -0.14816298      -2.74553832       0.00000000
Si       2.65773522      -2.86316298      -0.03053832       0.00000000
