10
Lattice="16.290000149 0.0 0.0 0.0 16.290000149 0.0 0.0 0.0 29.1751946751" Properties=species:S:1:pos:R:3:initial_magmoms:R:1 pbc="T T T"
Si      -0.69260194       2.04495702       0.77419297       0.00000000
Si       2.04696884      -0.62443969       0.91096628       0.00000000
Si      -1.25734366      -1.77986985       0.82688337       0.00000000
Si      -0.65189323      -0.67297900      -2.14501866       0.00000000
Si      -0.69263452      -2.82322807      -1.17325128       0.00000000
H        0.68963716       2.31517555      -2.13253168       0.00000000
Si      -1.31329981       1.52882466       2.95553475       0.00000000
Si       1.07212636       3.53177792       0.44337543       0.00000000
Si       1.50249187      -1.88357199       2.83743356       0.00000000
Si      -3.56522943       0.79583981      -0.77133380       0.00000000
