10
Lattice="16.290000149 0.0 0.0 0.0 16.290000149 0.0 0.0 0.0 29.1751946751" Properties=species:S:1:pos:R:3:initial_magmoms:R:1 pbc="T T T"
Si      -1.35602848      -1.31396770       1.39905270       0.00000000
Si       1.34309422       1.36956547       1.36363401       0.00000000
Si      -1.37464795       1.35079939      -1.36031971       0.00000000
Si       1.42654789      -1.37655388      -1.29322551       0.00000000
Si      -2.67638186      -2.65538405       0.00542659       0.00000000
Si      -2.54743022      -0.11881926      -2.80923573       0.00000000
Si       2.68517846      -0.00887805      -2.71853005       0.00000000
Si       2.71083521       2.71909424       0.01409454       0.00000000
Si      -0.00307881      -2.68064984       2.75496987       0.00000000
Si       2.80228728      -2.64021806       0.12320685       0.00000000
