10
Lattice="16.290000149 0.0 0.0 0.0 16.290000149 0.0 0.0 0.0 29.1751946751" Properties=species:S:1:pos:R:3:initial_magmoms:R:1 pbc="T T T"
Si       1.11563695      -0.04357575      -1.02121934       0.00000000
H        0.63978976       0.95008168       1.61750197       0.00000000
H       -0.87162904       1.79291000       0.42998402       0.00000000
Si      -2.23906052       1.21062394       0.16034687       0.00000000
Si      -2.74041786      -0.99227278       0.76719092       0.00000000
Si       0.11044620       0.68909959       3.00349877       0.00000000
Si       1.33887511      -2.17450325      -1.93758303       0.00000000
Si       3.17314542       0.66132514      -0.12673705       0.00000000
Si       0.88961320       1.47352825      -2.85721434       0.00000000
Si      -1.68601502      -0.90547966       2.87769533       0.00000000
