10
Lattice="16.290000149 0.0 0.0 0.0 16.290000149 0.0 0.0 0.0 29.1751946751" Properties=species:S:1:pos:R:3:initial_magmoms:R:1 pbc="T T T"
Si      -1.34371324       1.35576784      -1.36919189       0.00000000
Si       1.32677490      -1.35063649      -1.39469101       0.00000000
Si      -1.34460919      -1.37140624       1.36111036       0.00000000
Si       1.34804964       1.37759644       1.35264955       0.00000000
Si       2.66677076      -2.70927137      -0.03264704       0.00000000
Si      -2.68734503       2.71989245      -0.01768017       0.00000000
Si      -2.71005329      -2.71287146      -0.00913184       0.00000000
Si      -2.72732069      -0.03091842       2.70004757       0.00000000
Si       2.71914311       0.03502350       2.70853755       0.00000000
Si       2.70827768       2.72554509      -0.00239237       0.00000000
