10
Lattice="16.290000149 0.0 0.0 0.0 16.290000149 0.0 0.0 0.0 29.1751946751" Properties=species:S:1:pos:R:3:initial_magmoms:R:1 pbc="T T T"
Si      -0.90404614      -1.82842220       1.17748168       0.00000000
Si       1.14191272       0.09692550      -2.06344482       0.00000000
Si       1.57012795       0.78178969       1.59019399       0.00000000
Si      -1.92748169       1.49744197      -0.31202871       0.00000000
Si      -1.94289203      -0.33340743       2.63516193       0.00000000
H       -2.85265596       0.47236113       1.72294112       0.00000000
H        1.88454125      -2.82335025      -0.13228033       0.00000000
Si      -0.04163724       0.96387931       3.26607552       0.00000000
Si       2.69975801       1.89586280      -1.57111341       0.00000000
Si       2.39554226       2.72334594       0.60007540       0.00000000
