10
Lattice="16.290000149 0.0 0.0 0.0 16.290000149 0.0 0.0 0.0 29.1751946751" Properties=species:S:1:pos:R:3:initial_magmoms:R:1 pbc="T T T"
Si       1.03682593       1.10183932      -0.21875561       0.00000000
H       -0.51284178       1.54152271       1.82476255       0.00000000
Si      -2.22052250      -0.78644863      -1.12805890       0.00000000
Si      -0.96930388       0.25588332       2.47831609       0.00000000
Si       1.04389579      -1.10856709       2.39551688       0.00000000
Si      -0.18425619      -2.69120576       0.98194953       0.00000000
Si      -0.54156105      -2.46391139      -1.37902393       0.00000000
Si       2.20904294       0.94778479       1.79646261       0.00000000
Si       2.52491907       0.02477709      -1.64206748       0.00000000
Si      -0.22903740       2.72865647      -1.38389618       0.00000000
