10
Lattice="16.290000149 0.0 0.0 0.0 16.290000149 0.0 0.0 0.0 29.1751946751" Properties=species:S:1:pos:R:3:initial_magmoms:R:1 pbc="T T T"
Si       1.42493681       1.43298244       1.16867077       0.00000000
Si       1.43662000      -1.24076044      -1.37170095       0.00000000
Si      -1.29008656       1.41012757      -1.36309427       0.00000000
Si      -1.64154331      -1.05570604       1.43171433       0.00000000
H        0.24626245      -2.66789477       1.68796006       0.00000000
H       -1.09998226       1.40820535       2.81073826       0.00000000
Si      -0.06315633       2.51004467       2.59198265       0.00000000
Si      -2.62720235       2.47381571       0.25586646       0.00000000
Si       2.86860387      -2.45239436       0.01143668       0.00000000
Si      -3.32050476       0.62175673       1.68267935       0.00000000
