10
Lattice="16.290000149 0.0 0.0 0.0 16.290000149 0.0 0.0 0.0 29.1751946751" Properties=species:S:1:pos:R:3:initial_magmoms:R:1 pbc="T T T"
Si      -1.41527521      -1.28372369       1.37908228       0.00000000
Si       1.32069547      -1.39518638      -1.36700375       0.00000000
Si       1.39787749       1.37274202       1.31378819       0.00000000
Si      -1.34658028       1.33255459      -1.40691541       0.00000000
Si       0.00755856       2.72437220       2.62964782       0.00000000
Si      -2.63953388      -2.72041373      -0.04691371       0.00000000
Si       2.57992877      -2.78969511       0.06068440       0.00000000
Si       2.69283476      -0.03754845      -2.73981336       0.00000000
Si      -2.71513577       2.71942004      -0.09458598       0.00000000
Si       0.00855225       2.67890681      -2.77990007       0.00000000
