10
Lattice="16.290000149 0.0 0.0 0.0 16.290000149 0.0 0.0 0.0 29.1751946751" Properties=species:S:1:pos:R:3:initial_magmoms:R:1 pbc="T T T"
Si       1.34582768       1.32841693      -1.38130834       0.00000000
Si      -1.33162932      -1.35948196      -1.37851044       0.00000000
Si      -1.35412581       1.38912976       1.32928022       0.00000000
Si       1.36990430      -1.34869798       1.36300674       0.00000000
Si      -2.62658659      -2.67491576       0.08968455       0.00000000
Si       2.70783460       2.69632082      -0.01791357       0.00000000
Si      -2.69485798       0.03572397       2.71411001       0.00000000
Si      -0.04045622       2.66789477      -2.75287801       0.00000000
Si       0.01021383       2.71893134       2.70827497       0.00000000
Si       2.73008674       0.00566892       2.71632732       0.00000000
