10
Lattice="16.290000149 0.0 0.0 0.0 16.290000149 0.0 0.0 0.0 29.1751946751" Properties=species:S:1:pos:R:3:initial_magmoms:R:1 pbc="T T T"
Si      -1.32510680       0.27637614       1.90449836       0.00000000
Si       2.21149784      -0.06845058       0.81174144       0.00000000
Si      -1.29497519      -0.12010617      -2.02595469       0.00000000
Si      -0.54506341       2.39059010       0.73883263       0.00000000
Si      -0.53154270      -1.98550667       1.69860901       0.00000000
H        2.05477175       0.72627337       2.08818538       0.00000000
H       -2.43129230       0.84582568      -1.73936676       0.00000000
H        0.16728201      -1.62675199      -2.71200940       0.00000000
H        0.64861894       2.75359647       1.63316905       0.00000000
H        0.74927485      -1.94455361       2.52129115       0.00000000
