10
Lattice="16.290000149 0.0 0.0 0.0 16.290000149 0.0 0.0 0.0 29.1751946751" Properties=species:S:1:pos:R:3:initial_magmoms:R:1 pbc="T T T"
Si       1.36648666       1.35848827       1.32960115       0.00000000
Si       1.37034739      -1.35707104      -1.33283959       0.00000000
Si      -1.34350147       1.38269521      -1.34331349       0.00000000
Si      -1.37438731      -1.33698547       1.36140211       0.00000000
Si      -0.07092666       2.69377958       2.61059642       0.00000000
Si      -0.00307881      -2.70492194      -2.67516113       0.00000000
Si      -2.69174333       0.02067201      -2.69336645       0.00000000
Si      -0.01495422      -2.70257618       2.69605056       0.00000000
Si       2.72060921       0.00734679      -2.68855254       0.00000000
Si       2.72088614       2.70904331      -0.03206354       0.00000000
