10
Lattice="16.290000149 0.0 0.0 0.0 16.290000149 0.0 0.0 0.0 29.1751946751" Properties=species:S:1:pos:R:3:initial_magmoms:R:1 pbc="T T T"
Si       1.27053742      -1.37503891      -1.41234200       0.00000000
Si       1.35420775       1.40151016       1.32642105       0.00000000
Si      -1.30929361      -1.33998283       1.43591556       0.00000000
Si      -1.39727590       1.34825815      -1.34494730       0.00000000
Si       2.63225111      -2.70826139      -0.04746804       0.00000000
Si      -0.08241225       2.64227060       2.69812200       0.00000000
Si      -2.73760083      -2.63709038       0.05411999       0.00000000
Si       2.60750660      -0.00439830      -2.77488194       0.00000000
Si      -0.04069356       2.69505020      -2.73403667       0.00000000
Si      -2.78293590       2.68874597       0.01899305       0.00000000
