10
Lattice="16.290000149 0.0 0.0 0.0 16.290000149 0.0 0.0 0.0 29.1751946751" Properties=species:S:1:pos:R:3:initial_magmoms:R:1 pbc="T T T"
Si      -1.32673906       1.35925390       1.36621602       0.00000000
Si       1.37790595      -1.33968961       1.35825119       0.00000000
Si       1.41117013       1.40357899      -1.25769596       0.00000000
Si      -1.41907078      -1.42897510      -1.23646226       0.00000000
Si       0.07944633      -2.66405848      -2.51620299       0.00000000
Si       2.66853008       0.00291591      -2.62320594       0.00000000
Si      -2.66861153      -0.05851368      -2.64936442       0.00000000
Si       0.05141124       2.72362286       2.67087237       0.00000000
Si      -2.64422540       2.75015928       0.02514902       0.00000000
Si       0.09604584       2.66690108      -2.72991130       0.00000000
