10
Lattice="16.290000149 0.0 0.0 0.0 16.290000149 0.0 0.0 0.0 29.1751946751" Properties=species:S:1:pos:R:3:initial_magmoms:R:1 pbc="T T T"
Si      -1.27599571      -1.43804326       1.29838369       0.00000000
Si       1.32595714      -1.41023623      -1.31836870       0.00000000
Si      -1.43586577       1.63273580      -0.91236669       0.00000000
Si       1.20796867       1.16466219       1.67109680       0.00000000
H        3.19069301      -0.12084674       0.54362140       0.00000000
Si      -0.78636718       2.01760334       2.70912105       0.00000000
Si      -2.30770658       0.17031407       2.63072730       0.00000000
Si      -0.08252514       2.65130064      -2.54255987       0.00000000
Si       2.63790993       2.62709370       0.33265557       0.00000000
Si       0.21721086      -2.48933471       2.80577847       0.00000000
