10
Lattice="16.290000149 0.0 0.0 0.0 16.290000149 0.0 0.0 0.0 29.1751946751" Properties=species:S:1:pos:R:3:initial_magmoms:R:1 pbc="T T T"
Si       1.32035338       1.34141635       1.39362611       0.00000000
Si      -1.35906331       1.33975477      -1.37933318       0.00000000
Si       1.41876127      -1.38157120      -1.28451672       0.00000000
Si      -1.37479782      -1.36067113       1.36042474       0.00000000
Si       0.03194469      -2.65629629      -2.66298282       0.00000000
Si       2.67638186       2.65538405      -0.00542659       0.00000000
Si       0.12895164       2.53656479      -2.81466232       0.00000000
Si       2.62158230      -2.77780341       0.15752855       0.00000000
Si      -2.86427073      -0.04409703      -2.54816121       0.00000000
Si       2.67330305      -0.02526579       2.74954328       0.00000000
