10
Lattice="16.290000149 0.0 0.0 0.0 16.290000149 0.0 0.0 0.0 29.1751946751" Properties=species:S:1:pos:R:3:initial_magmoms:R:1 pbc="T T T"
Si      -1.29212786       1.32131449      -1.49341987       0.00000000
Si       1.21761708      -1.33034893      -1.57724020       0.00000000
Si       1.31733305       1.66974131       1.17015871       0.00000000
Si      -1.42994126      -1.46243151       1.33844123       0.00000000
H        0.55278307      -2.74794044       0.21096583       0.00000000
H        2.77959026       0.16309548       0.48410401       0.00000000
H        0.18101595       2.63567315       1.45674665       0.00000000
H       -0.99470504       0.82984519       3.34902060       0.00000000
Si       3.41483510      -1.11747772       0.97208831       0.00000000
Si      -2.63790993      -2.62709370      -0.33265557       0.00000000
