10
Lattice="16.290000149 0.0 0.0 0.0 16.290000149 0.0 0.0 0.0 29.1751946751" Properties=species:S:1:pos:R:3:initial_magmoms:R:1 pbc="T T T"
Si      -0.73322920       1.32752098      -1.79348674       0.00000000
Si      -1.52133940      -1.84728927      -0.07839375       0.00000000
Si      -0.63285022       1.08771589       2.03905436       0.00000000
Si       1.99433585      -0.85294115      -1.03802425       0.00000000
H        2.42957207       1.43933554       0.97255511       0.00000000
H        1.16753689      -0.80696262       2.71723176       0.00000000
Si      -2.49618188       2.30892833      -0.54598459       0.00000000
Si       0.78636718      -2.01760334      -2.70912105       0.00000000
Si      -0.64949860      -0.38486754      -3.62148774       0.00000000
Si      -0.48962853      -3.45564660      -1.41073736       0.00000000
