10
Lattice="16.290000149 0.0 0.0 0.0 16.290000149 0.0 0.0 0.0 29.1751946751" Properties=species:S:1:pos:R:3:initial_magmoms:R:1 pbc="T T T"
Si       1.29295360       1.34722064      -1.37881970       0.00000000
Si      -1.27764100      -1.46613259      -1.30191389       0.00000000
Si      -1.32595714       1.41023623       1.31836870       0.00000000
Si       1.22021875      -1.51068574       1.36373612       0.00000000
H        1.86473587       1.28938949       1.86199010       0.00000000
H       -1.92070505      -2.29848644      -0.22785827       0.00000000
Si      -2.60195285      -0.02780703       2.61675239       0.00000000
Si       2.52956987       2.70698100       0.07378407       0.00000000
Si      -0.18484263       2.63456706      -2.65036221       0.00000000
Si       2.67863477      -0.05709645      -2.66264497       0.00000000
