10
Lattice="16.290000149 0.0 0.0 0.0 16.290000149 0.0 0.0 0.0 29.1751946751" Properties=species:S:1:pos:R:3:initial_magmoms:R:1 pbc="T T T"
Si       1.83091457       1.02091060      -0.94597943       0.00000000
Si       1.40572927      -1.36542781       1.25165378       0.00000000
Si      -1.32278059       1.48821898       1.20553071       0.00000000
Si      -1.30427515      -1.18772020      -1.54790979       0.00000000
Si       0.99945667       2.26559041      -2.65996377       0.00000000
Si      -2.67248855       0.09254349       2.51527814       0.00000000
Si      -2.62840781      -2.59051727      -0.20973756       0.00000000
Si       0.04901661      -2.70568757       2.56586793       0.00000000
Si       2.74229121      -2.52006302      -0.30607697       0.00000000
Si       2.82740646       0.09508473       2.47507472       0.00000000
