10
Lattice="16.290000149 0.0 0.0 0.0 16.290000149 0.0 0.0 0.0 29.1751946751" Properties=species:S:1:pos:R:3:initial_magmoms:R:1 pbc="T T T"
Si      -1.33497333      -1.37696113      -1.34520988       0.00000000
Si       1.34353242      -1.35755974       1.36324015       0.00000000
Si       1.33107057       1.35734797      -1.38305010       0.00000000
Si      -1.38776303       1.36197433       1.32268663       0.00000000
Si      -2.66542032       0.03113019      -2.65637230       0.00000000
Si      -0.03604814       2.71497287       2.68405956       0.00000000
Si       2.69125301       2.71171487      -0.02972952       0.00000000
Si       2.69177429       0.00446346       2.71329310       0.00000000
Si       2.70206957      -2.71339274       0.00930689       0.00000000
Si       2.70987248      -0.00244350      -2.71822371       0.00000000
