10
Lattice="16.290000149 0.0 0.0 0.0 16.290000149 0.0 0.0 0.0 29.1751946751" Properties=species:S:1:pos:R:3:initial_magmoms:R:1 pbc="T T T"
Si      -0.65321272       0.83657296      -1.07860695       0.00000000
Si       2.14544189       0.23519502       1.32840496       0.00000000
Si       2.22917249      -1.47719350      -0.49959603       0.00000000
Si       0.38248920       1.21660237       2.57590711       0.00000000
Si      -2.08622774       2.06102711       0.20784409       0.00000000
Si       0.40148334      -2.66865063      -1.50850344       0.00000000
Si      -2.09706059      -0.49081770      -2.28858980       0.00000000
Si      -0.68963716      -2.31517555       2.13253168       0.00000000
Si      -1.38223909      -0.27021852       2.90672465       0.00000000
Si       0.84321928       2.20141433      -2.24185113       0.00000000
