10
Lattice="16.290000149 0.0 0.0 0.0 16.290000149 0.0 0.0 0.0 29.1751946751" Properties=species:S:1:pos:R:3:initial_magmoms:R:1 pbc="T T T"
Si       1.41449329       1.32703228      -1.23828279       0.00000000
Si      -1.42781851      -1.38841300      -1.17829859       0.00000000
Si       1.29482695      -1.29204136       1.42786320       0.00000000
Si      -1.08095554       1.42037398       1.49826295       0.00000000
H        2.13658013      -0.35748405       2.24004227       0.00000000
Si      -0.53719533      -2.11726019       2.59061141       0.00000000
Si       1.04606236       2.39371778       2.17486489       0.00000000
Si      -2.13820913      -0.34077051       2.68157967       0.00000000
Si       2.64758114       2.46288512       0.38595865       0.00000000
Si       0.00695583      -2.70964604      -2.46037334       0.00000000
