10
Lattice="16.290000149 0.0 0.0 0.0 16.290000149 0.0 0.0 0.0 29.1751946751" Properties=species:S:1:pos:R:3:initial_magmoms:R:1 pbc="T T T"
Si      -1.34824186      -1.36202320      -1.35005296       0.00000000
Si       1.34350147      -1.38269521       1.34331349       0.00000000
Si      -1.38782656       1.35187453       1.33281042       0.00000000
Si       1.34842105       1.34736220      -1.37774022       0.00000000
Si       2.70998813      -0.02420694       2.67291464       0.00000000
Si      -0.03735297       2.73787661       2.65640148       0.00000000
Si      -2.69177429      -0.00446346      -2.71329310       0.00000000
Si       2.71350677       2.70269021      -0.03075066       0.00000000
Si       0.01029528      -2.71785620      -2.70398622       0.00000000
Si      -0.03088584      -2.71968068       2.70471560       0.00000000
