10
Lattice="16.290000149 0.0 0.0 0.0 16.290000149 0.0 0.0 0.0 29.1751946751" Properties=species:S:1:pos:R:3:initial_magmoms:R:1 pbc="T T T"
H       -1.11563695       0.04357575       1.02121934       0.00000000
Si       0.22323816      -2.13092750      -0.91636369       0.00000000
Si       2.05750847       0.70490089       0.89448229       0.00000000
Si      -0.22602375       1.51710400      -1.83599500       0.00000000
H       -0.47584719       0.99365743       2.63872131       0.00000000
H       -1.98726599       1.83648575       1.45120336       0.00000000
Si       2.34360974      -1.53865567      -1.91826905       0.00000000
H        2.42258366      -2.35581095       0.65988455       0.00000000
Si       3.31553631       0.45822141      -1.04383012       0.00000000
Si       1.69267763       2.82675486       1.81215887       0.00000000
