10
Lattice="16.290000149 0.0 0.0 0.0 16.290000149 0.0 0.0 0.0 29.1751946751" Properties=species:S:1:pos:R:3:initial_magmoms:R:1 pbc="T T T"
Si      -2.04696884       0.62443969      -0.91096628       0.00000000
Si       1.03171087      -1.60835733      -1.33234362       0.00000000
Si      -0.54447696      -1.25913230       1.92646728       0.00000000
Si       1.52133940       1.84728927       0.07839375       0.00000000
Si      -3.30431250      -1.15543016      -0.08408291       0.00000000
Si       2.30770658      -0.17031407      -2.63072730       0.00000000
Si       2.52491744      -2.65964878       0.17505117       0.00000000
Si       0.78811021       3.17481026      -1.71509299       0.00000000
Si      -2.14270517       0.28199619       3.00168990       0.00000000
Si       0.88848919       2.93500516       2.11744810       0.00000000
