10
Lattice="16.290000149 0.0 0.0 0.0 16.290000149 0.0 0.0 0.0 29.1751946751" Properties=species:S:1:pos:R:3:initial_magmoms:R:1 pbc="T T T"
Si       0.96539428      -1.44746425      -1.52259506       0.00000000
Si      -1.69264505       0.93217897      -1.30433543       0.00000000
Si      -1.26532576      -1.48344886       1.32189890       0.00000000
Si       1.50315976       1.28591632       1.28470052       0.00000000
H       -1.16330149       1.19316106      -2.69033223       0.00000000
Si      -0.92924677      -2.95042854      -1.83885417       0.00000000
Si      -2.64310139      -2.50947452      -0.31147438       0.00000000
Si      -2.56868867      -0.05352894       2.62235344       0.00000000
Si       0.16736346       2.64515393       2.62907657       0.00000000
Si       2.53695575      -2.72662023      -0.39876656       0.00000000
