10
Lattice="16.290000149 0.0 0.0 0.0 16.290000149 0.0 0.0 0.0 29.1751946751" Properties=species:S:1:pos:R:3:initial_magmoms:R:1 pbc="T T T"
Si       1.34684092       1.33336909       1.38800697       0.00000000
Si       1.32929659      -1.44011746      -1.31455550       0.00000000
Si      -1.34153038      -1.41835402       1.35915270       0.00000000
Si      -1.42697143       1.36640521      -1.33441505       0.00000000
H        0.49383135       1.65700253      -3.21747256       0.00000000
Si      -2.76353337       2.52104042       0.22331569       0.00000000
Si       2.64849338       2.68705181      -0.04697206       0.00000000
Si      -2.73456975      -0.08257401      -2.70177182       0.00000000
Si      -0.06498081      -2.76310983      -2.67933610       0.00000000
Si       2.69534342      -0.05095512       2.74987588       0.00000000
