10
Lattice="16.290000149 0.0 0.0 0.0 16.290000149 0.0 0.0 0.0 29.1751946751" Properties=species:S:1:pos:R:3:initial_magmoms:R:1 pbc="T T T"
Si      -0.71482150      -0.08503380      -1.32642105       0.00000000
H       -2.11398590       0.74306836       0.30403470       0.00000000
H        1.14461686       1.63867627      -1.12435365       0.00000000
H        1.79435981       1.21428919      -1.08429611       0.00000000
Si      -1.51975927       0.84455506       1.70596116       0.00000000
Si       0.25754490      -2.68488524       1.44250915       0.00000000
Si       2.25070787      -2.08280684       0.27474281       0.00000000
Si       0.89463052      -0.87265531      -2.84887023       0.00000000
Si       0.37488177       2.34751934       2.02222027       0.00000000
Si      -1.03830832      -1.18376173       2.76528330       0.00000000
