10
Lattice="16.290000149 0.0 0.0 0.0 16.290000149 0.0 0.0 0.0 29.1751946751" Properties=species:S:1:pos:R:3:initial_magmoms:R:1 pbc="T T T"
Si      -0.12587283       2.30540318       0.23124259       0.00000000
Si       1.60151878       0.06916734      -1.78890624       0.00000000
Si       0.28733931      -0.88493797       2.24205536       0.00000000
Si      -2.12701790      -0.97334380      -0.67660194       0.00000000
H        1.09051777      -2.75120184       0.06517738       0.00000000
H        2.54293418      -1.84459817       0.60628972       0.00000000
Si      -1.86888656       1.98589926       1.72725905       0.00000000
Si      -1.90962785      -0.16434981       2.69902643       0.00000000
Si       3.18599823      -1.01224432      -0.46776590       0.00000000
Si      -1.04606236      -2.39371778      -2.17486489       0.00000000
