10
Lattice="16.290000149 0.0 0.0 0.0 16.290000149 0.0 0.0 0.0 29.1751946751" Properties=species:S:1:pos:R:3:initial_magmoms:R:1 pbc="T T T"
Si      -1.35624025      -1.35001747      -1.35425419       0.00000000
Si      -1.34361550       1.33095817       1.38690123       0.00000000
Si       1.34073217       1.35340579      -1.38482979       0.00000000
Si       1.34592868      -1.37979559       1.35463346       0.00000000
Si       0.06827139      -2.71063973      -2.62442546       0.00000000
Si      -2.70658352       2.67037085       0.02310675       0.00000000
Si       2.70507181       2.68320737      -0.00583504       0.00000000
Si       2.69485798      -0.03572397      -2.71411001       0.00000000
Si      -2.69562035      -0.05994720       2.71416836       0.00000000
Si       2.69764357      -0.02679705       2.71600640       0.00000000
