10
Lattice="16.290000149 0.0 0.0 0.0 16.290000149 0.0 0.0 0.0 29.1751946751" Properties=species:S:1:pos:R:3:initial_magmoms:R:1 pbc="T T T"
Si       1.28910916       1.43799976       1.31682241       0.00000000
Si      -1.35943309       1.36559071      -1.33464846       0.00000000
Si      -1.30215745      -1.35634940       1.41771023       0.00000000
Si       1.42164460      -1.36302341      -1.29937565       0.00000000
Si       2.52781706       0.04823469       2.69065315       0.00000000
Si      -2.65636145      -2.69654888       0.03530199       0.00000000
Si       0.05768289      -2.70576902      -2.67416917       0.00000000
Si      -2.71627607      -0.00215028      -2.67125165       0.00000000
Si       0.01495422       2.70257618      -2.69605056       0.00000000
Si       2.75592594       0.00146610      -2.66719630       0.00000000
