10
Lattice="16.290000149 0.0 0.0 0.0 16.290000149 0.0 0.0 0.0 29.1751946751" Properties=species:S:1:pos:R:3:initial_magmoms:R:1 pbc="T T T"
Si       0.73322920      -1.32752098       1.79348674       0.00000000
Si      -1.76295269       0.98140735       1.24750215       0.00000000
Si       1.37797111       1.83562238      -0.76255206       0.00000000
Si       0.08373060      -1.71238853      -1.82800100       0.00000000
H       -2.14544189      -0.23519502      -1.32840496       0.00000000
Si       2.72756504      -2.18046213       0.75546249       0.00000000
Si       2.86537845       0.60328387      -2.07639861       0.00000000
Si      -0.78811021      -3.17481026       1.71509299       0.00000000
Si      -2.79865461       0.60137794      -2.40701191       0.00000000
Si       1.51959637      -3.34512433      -0.91563431       0.00000000
