10
Lattice="16.290000149 0.0 0.0 0.0 16.290000149 0.0 0.0 0.0 29.1751946751" Properties=species:S:1:pos:R:3:initial_magmoms:R:1 pbc="T T T"
Si       1.58447944      -1.08141166       1.32114034       0.00000000
Si      -1.23308785      -1.13585284      -1.62424144       0.00000000
Si      -1.60151878      -0.06916734       1.78890624       0.00000000
Si       1.28671453       1.59223348      -1.28216228       0.00000000
H        0.94141540      -1.91376551       2.39519596       0.00000000
H       -0.51100101      -2.82036918       1.85408362       0.00000000
Si      -1.72739162       2.23623583       2.02014883       0.00000000
Si      -2.64758114      -2.46288512      -0.38595865       0.00000000
Si       2.81668764      -2.45086310      -0.09633649       0.00000000
Si       0.12888648      -2.50551605      -2.88563098       0.00000000
