10
Lattice="16.290000149 0.0 0.0 0.0 16.290000149 0.0 0.0 0.0 29.1751946751" Properties=species:S:1:pos:R:3:initial_magmoms:R:1 pbc="T T T"
Si       1.82079848      -0.88977610       1.14465959       0.00000000
Si      -0.87869890       1.78096943       1.28207475       0.00000000
Si       1.11680983       1.44146953      -1.55422097       0.00000000
Si      -1.05182902      -2.13889331      -0.40086717       0.00000000
H       -1.93178225      -0.57132289      -1.88188758       0.00000000
Si       2.60377733       2.45428400      -0.08443301       0.00000000
Si      -0.05965398      -2.54740253      -2.54652769       0.00000000
Si      -1.96020830       0.61900372       2.99121601       0.00000000
Si       0.99432532       3.24190551       1.43801617       0.00000000
H        3.20303757      -0.61955758      -1.76206506       0.00000000
