10
Lattice="16.290000149 0.0 0.0 0.0 16.290000149 0.0 0.0 0.0 29.1751946751" Properties=species:S:1:pos:R:3:initial_magmoms:R:1 pbc="T T T"
Si      -1.37815030      -1.36436896      -1.30465636       0.00000000
Si      -1.38486178       1.31478220       1.35822201       0.00000000
Si       1.32970384      -1.36635634       1.37534785       0.00000000
Si       1.32471910       1.38631159      -1.38287505       0.00000000
Si      -2.69563664       0.02653641      -2.64572335       0.00000000
Si      -0.01466100       2.67638186       2.68554749       0.00000000
Si       2.68820840      -0.00039096       2.70594096       0.00000000
Si      -0.05141124      -2.72362286      -2.67087237       0.00000000
Si       2.74923075       0.02568933      -2.65304633       0.00000000
Si       2.69469182      -2.71412579       0.02546994       0.00000000
