10
Lattice="16.290000149 0.0 0.0 0.0 16.290000149 0.0 0.0 0.0 29.1751946751" Properties=species:S:1:pos:R:3:initial_magmoms:R:1 pbc="T T T"
Si       1.34926813       1.34309422       1.31332139       0.00000000
Si      -1.30992778       1.42679224      -1.29750843       0.00000000
Si       1.43741332      -1.33529131      -1.28099527       0.00000000
Si      -1.37254654      -1.25356438       1.43098495       0.00000000
Si      -2.66040137       0.04079016      -2.62109949       0.00000000
Si       0.07092666      -2.69377958      -2.61059642       0.00000000
Si      -0.01514970      -2.60876207       2.73450347       0.00000000
Si      -2.68152950      -2.68323995       0.10590596       0.00000000
Si      -2.60802902       2.78508504       0.12008510       0.00000000
Si       0.06621885       2.75628432      -2.65272540       0.00000000
