10
Lattice="16.290000149 0.0 0.0 0.0 16.290000149 0.0 0.0 0.0 29.1751946751" Properties=species:S:1:pos:R:3:initial_magmoms:R:1 pbc="T T T"
Si      -1.39031893       1.35163018       1.31585963       0.00000000
Si       1.34454403       1.34469064      -1.37228446       0.00000000
Si      -1.39787749      -1.37274202      -1.31378819       0.00000000
Si       1.34897491      -1.30841281       1.42792155       0.00000000
Si       2.57261456      -2.73538262       0.00175051       0.00000000
Si       2.68929983       2.67693572       0.02885427       0.00000000
Si      -2.88675093      -0.01321119       2.47910382       0.00000000
Si      -0.05124834       2.63575460       2.75011220       0.00000000
Si       2.66890475      -0.02537982      -2.74564840       0.00000000
Si      -2.73096965       2.69781950      -0.06812408       0.00000000
