10
Lattice="16.290000149 0.0 0.0 0.0 16.290000149 0.0 0.0 0.0 29.1751946751" Properties=species:S:1:pos:R:3:initial_magmoms:R:1 pbc="T T T"
Si       1.80693569       1.33146642       0.60567704       0.00000000
Si      -0.72998749      -0.34465079       2.26192367       0.00000000
Si      -1.21756348       1.87126816      -0.95712144       0.00000000
Si       1.59822820      -1.54112850      -1.07522262       0.00000000
H        0.67305394      -2.56620934       0.95974720       0.00000000
H       -1.28664937      -2.92294405      -0.34067875       0.00000000
Si      -0.29380644      -2.86464214      -1.49076492       0.00000000
Si       0.47439738       2.87769694       1.76013949       0.00000000
Si      -1.46175058       1.84583946       2.66182806       0.00000000
Si      -1.16160733      -1.43742636      -3.08577282       0.00000000
