10
Lattice="16.290000149 0.0 0.0 0.0 16.290000149 0.0 0.0 0.0 29.1751946751" Properties=species:S:1:pos:R:3:initial_magmoms:R:1 pbc="T T T"
Si      -1.50136786      -1.34977312      -1.18220806       0.00000000
Si      -1.43114167       1.17444385       1.45776778       0.00000000
Si       1.37634211      -1.32234076       1.43221031       0.00000000
Si       0.76344715       1.49659652      -1.72407895       0.00000000
H        1.23191497      -2.09740268      -2.25506750       0.00000000
Si      -1.31439124       2.21082018      -2.56578332       0.00000000
Si      -0.13551651      -2.67968873      -2.52470465       0.00000000
Si      -2.56035145       0.18492408      -2.64753222       0.00000000
Si       0.01754433       2.61319784       2.73330729       0.00000000
H       -0.63443035       3.77758587       0.01429585       0.00000000
