10
Lattice="16.28999089631971 0.0 0.0 0.0 16.28999089631971 0.0 0.0 0.0 34.35334932831803" Properties=species:S:1:pos:R:3:initial_magmoms:R:1 pbc="T T T"
Si       1.35666378      -1.35712693       1.35781689       0.00000000
Si      -1.35767376      -1.35719675      -1.35743900       0.00000000
Si      -1.35744570       1.35708895       1.35778254       0.00000000
Si       1.35777150       1.35847360      -1.35699241       0.00000000
Si       2.71298547      -0.00048870       2.71491236       0.00000000
Si       0.00040725       2.71412740       2.71525589       0.00000000
Si       2.71441899       2.71526770       0.00013741       0.00000000
Si       2.71528236      -2.71492954       0.00058401       0.00000000
Si      -2.71507059      -2.71519018       0.00034353       0.00000000
Si       2.71524978      -0.00151334      -2.71501542       0.00000000
