10
Lattice="16.28999089631971 0.0 0.0 0.0 16.28999089631971 0.0 0.0 0.0 34.35334932831803" Properties=species:S:1:pos:R:3:initial_magmoms:R:1 pbc="T T T"
Si       1.35710361      -1.35881763      -1.35592746       0.00000000
Si      -1.35817875       1.35944158      -1.35451897       0.00000000
Si       1.34933328       1.37049924       1.37691736       0.00000000
Si      -1.36629117      -1.37110029       1.38718902       0.00000000
Si       2.60724708      -0.10634469       2.68330726       0.00000000
Si       2.71420722       0.00085833      -2.71319469       0.00000000
Si      -0.00045612      -2.71432482      -2.71319469       0.00000000
Si      -2.71524978      -2.71280985       0.00319486       0.00000000
Si       0.00009774       2.71507421      -2.71322905       0.00000000
Si      -2.71564074       0.00104112      -2.71346952       0.00000000
