10
Lattice="16.28999089631971 0.0 0.0 0.0 16.28999089631971 0.0 0.0 0.0 34.35334932831803" Properties=species:S:1:pos:R:3:initial_magmoms:R:1 pbc="T T T"
Si      -2.06028541       1.12791960      -0.20526138       0.00000000
Si      -0.23957703      -2.31361983      -0.53838599       0.00000000
Si       1.17504657       0.85432905      -1.94086226       0.00000000
Si       0.58021722       0.71242686       2.27068895       0.00000000
Si      -1.46968217       0.24953022       3.33018119       0.00000000
Si       0.77722848       3.25347138      -1.48076760       0.00000000
Si       1.80281430      -2.69903960      -1.76789305       0.00000000
Si       3.67492626       0.41158314      -0.40451091       0.00000000
Si      -1.41871239       3.40021170      -0.51433863       0.00000000
Si      -3.02815529       0.17573652      -2.16038029       0.00000000
