10
Lattice="16.28999089631971 0.0 0.0 0.0 16.28999089631971 0.0 0.0 0.0 34.35334932831803" Properties=species:S:1:pos:R:3:initial_magmoms:R:1 pbc="T T T"
Si      -0.11974779      -0.79304118      -2.19109220       0.00000000
Si       1.53321480      -0.90124262       1.52144199       0.00000000
Si      -2.16513648      -0.51923235       0.73684540       0.00000000
Si       0.43455204       2.32257444       0.12198881       0.00000000
Si      -2.90743920       1.70964690       0.46418272       0.00000000
Si       1.99065429       0.06110705      -2.76860668       0.00000000
Si      -1.19731500       2.71338783       1.77967626       0.00000000
Si       1.41229413      -3.22860862       0.96017665       0.00000000
Si      -1.78924473       0.56191866      -3.29483158       0.00000000
Si       3.69292671      -0.36086748       0.84924962       0.00000000
