10
Lattice="16.28999089631971 0.0 0.0 0.0 16.28999089631971 0.0 0.0 0.0 34.35334932831803" Properties=species:S:1:pos:R:3:initial_magmoms:R:1 pbc="T T T"
Si       0.11974779       0.79304118       2.19109220       0.00000000
Si       2.11040208       0.85414823      -0.57751448       0.00000000
Si      -0.34285563      -2.38822870       0.11882830       0.00000000
Si      -1.66949694       1.35495985      -1.10373938       0.00000000
Si      -2.04538869       0.27380884       2.92793760       0.00000000
Si      -3.50555913      -0.06484072      -0.92438044       0.00000000
Si       3.72894390      -0.21968531       0.77054606       0.00000000
Si       2.55811644       0.48089220      -2.83934026       0.00000000
Si       1.70072487      -3.46804393      -0.46057561       0.00000000
Si       0.55429983       3.11561563       2.31308101       0.00000000
