10
Lattice="16.28999089631971 0.0 0.0 0.0 16.28999089631971 0.0 0.0 0.0 34.35334932831803" Properties=species:S:1:pos:R:3:initial_magmoms:R:1 pbc="T T T"
Si      -1.39826844      -1.77584199       0.67445968       0.00000000
Si       1.85608260      -0.17091468       1.47475576       0.00000000
Si      -1.45591875       1.89356915       0.22281595       0.00000000
Si       0.28522161      -1.05260116      -2.13925296       0.00000000
Si       0.39820905      -0.72196465       3.21928852       0.00000000
Si       2.44493352      -0.51222602      -2.81144533       0.00000000
Si      -3.38475249      -1.54454028      -0.69802610       0.00000000
Si      -1.24799319      -0.15135853      -3.66069495       0.00000000
Si       2.36315772      -2.50789830       1.76937025       0.00000000
Si      -0.22012677       3.89556128       0.72767305       0.00000000
