10
Lattice="16.28999089631971 0.0 0.0 0.0 16.28999089631971 0.0 0.0 0.0 34.35334932831803" Properties=species:S:1:pos:R:3:initial_magmoms:R:1 pbc="T T T"
Si       1.35567009       1.35601218      -1.35785124       0.00000000
Si       1.35769005      -1.35669636       1.35778254       0.00000000
Si      -1.35788553      -1.35786924      -1.35658017       0.00000000
Si      -1.35705474       1.35804843       1.35767948       0.00000000
Si      -2.71176372      -0.00457749      -2.71453447       0.00000000
Si       2.71303434       0.00016290       2.71446577       0.00000000
Si       0.00140094      -2.71274112      -2.71487801       0.00000000
Si      -2.71445157       0.00373041       2.71381305       0.00000000
Si      -2.71480995      -2.71404432       0.00013741       0.00000000
Si       2.71484253      -2.71407690      -0.00054965       0.00000000
