10
Lattice="16.28999089631971 0.0 0.0 0.0 16.28999089631971 0.0 0.0 0.0 34.35334932831803" Properties=species:S:1:pos:R:3:initial_magmoms:R:1 pbc="T T T"
Si       1.83606219       1.41980056      -0.17935894       0.00000000
Si       0.77647914      -1.80197766      -1.28677412       0.00000000
Si      -0.18464715      -0.43083207       2.32816214       0.00000000
Si      -2.23100509       0.28170297      -0.78150478       0.00000000
Si      -1.34741106       1.30487461      -2.86122336       0.00000000
Si       1.08796023      -3.25312344       0.44291798       0.00000000
Si      -0.53445861      -2.71620504       2.08641748       0.00000000
Si       1.11606048       3.19171273       1.25523773       0.00000000
Si       3.50555913       0.06484072       0.92438044       0.00000000
Si      -3.19263377       1.57191658       1.00026703       0.00000000
