10
Lattice="16.28999089631971 0.0 0.0 0.0 16.28999089631971 0.0 0.0 0.0 34.35334932831803" Properties=species:S:1:pos:R:3:initial_magmoms:R:1 pbc="T T T"
Si      -0.28211022      -0.35266221      -2.32500163       0.00000000
Si      -1.54106658      -1.46316780       1.11930145       0.00000000
Si      -0.61046775       2.18794248       0.84385614       0.00000000
Si       2.45084679      -0.10753029       0.67737972       0.00000000
Si       1.88138097       0.11942199      -3.09345213       0.00000000
Si       0.51611607       2.13609141       2.98664652       0.00000000
Si       2.13723171       0.32189040       3.02520096       0.00000000
Si      -0.12325014      -2.74730850       2.64170533       0.00000000
Si      -2.97979938      -2.25699579      -0.81517108       0.00000000
Si      -2.53317645      -0.10938735       2.89969913       0.00000000
