10
Lattice="16.28999089631971 0.0 0.0 0.0 16.28999089631971 0.0 0.0 0.0 34.35334932831803" Properties=species:S:1:pos:R:3:initial_magmoms:R:1 pbc="T T T"
Si       0.47671056       1.74689073      -1.46328173       0.00000000
Si       1.12658382      -0.05185107       2.14279037       0.00000000
Si       0.61046775      -2.18794248      -0.84385614       0.00000000
Si      -2.53306242       0.53740710       0.47514144       0.00000000
Si      -1.42084638       0.92201400      -2.66585575       0.00000000
Si      -0.63069993      -0.91425996       3.40290182       0.00000000
Si      -1.92270870      -2.29732983       2.05584299       0.00000000
Si      -0.93059883      -3.65111028       0.27544531       0.00000000
Si      -3.42614538       0.01726740      -1.69523568       0.00000000
Si       3.06131454      -2.29547277      -0.16647642       0.00000000
