10
Lattice="16.28999089631971 0.0 0.0 0.0 16.28999089631971 0.0 0.0 0.0 34.35334932831803" Properties=species:S:1:pos:R:3:initial_magmoms:R:1 pbc="T T T"
Si      -1.35721764      -1.35786924      -1.35675194       0.00000000
Si      -1.35746199       1.35581670       1.35877879       0.00000000
Si       1.35778779       1.35731538      -1.35781689       0.00000000
Si       1.36086660      -1.35624024       1.35936279       0.00000000
Si      -2.71461447      -2.71218726      -0.00061836       0.00000000
Si       2.71287144      -2.71575477       0.00003435       0.00000000
Si      -0.00014661       2.71489140      -2.71487801       0.00000000
Si       2.71406061       2.71575477      -0.00079013       0.00000000
Si       2.71510317      -0.00008145      -2.71494671       0.00000000
Si      -2.71542897      -0.00009774      -2.71470624       0.00000000
