10
Lattice="16.28999089631971 0.0 0.0 0.0 16.28999089631971 0.0 0.0 0.0 34.35334932831803" Properties=species:S:1:pos:R:3:initial_magmoms:R:1 pbc="T T T"
Si      -2.31008490      -0.35437266       0.31646323       0.00000000
Si       1.60792074      -1.43259147       0.98735016       0.00000000
Si       0.60476625       2.16129204       0.86635760       0.00000000
Si       0.43836390      -0.50062428      -2.38147857       0.00000000
Si       3.03046128       1.26395739      -0.19691351       0.00000000
Si      -3.04562727       1.92860568       0.42656578       0.00000000
Si       2.78638821      -0.65449962      -2.29181627       0.00000000
Si      -1.55126412       2.63915919       2.04509038       0.00000000
Si      -3.36422709      -1.29922524      -1.65019841       0.00000000
Si       3.39327216      -2.01411189      -0.47376731       0.00000000
