10
Lattice="16.28999089631971 0.0 0.0 0.0 16.28999089631971 0.0 0.0 0.0 34.35334932831803" Properties=species:S:1:pos:R:3:initial_magmoms:R:1 pbc="T T T"
Si      -2.29457682       0.18977850       0.50650607       0.00000000
Si       0.74230272      -2.22887925       0.27266269       0.00000000
Si       1.71012420       1.00374093       1.31549354       0.00000000
Si       0.39819276       0.62418393      -2.32441762       0.00000000
Si      -0.90251487      -2.99836088      -1.25149322       0.00000000
Si       2.90743920      -1.70964690      -0.46418272       0.00000000
Si       3.34199124       0.61292754      -0.34219390       0.00000000
Si      -2.86127171      -1.81052110      -0.61207397       0.00000000
Si      -2.10308787       0.14094108       2.82669822       0.00000000
Si       2.32578846       1.87229115      -2.05711406       0.00000000
