10
Lattice="16.28999089631971 0.0 0.0 0.0 16.28999089631971 0.0 0.0 0.0 34.35334932831803" Properties=species:S:1:pos:R:3:initial_magmoms:R:1 pbc="T T T"
Si       1.20596499      -1.45200915       1.44457632       0.00000000
Si       1.96146261       0.70591086      -1.14257620       0.00000000
Si      -1.35267273      -1.46411262      -1.31302495       0.00000000
Si      -1.49524281       1.29161781       1.41769481       0.00000000
Si       2.62671363       2.65745027       0.03029280       0.00000000
Si       2.57267970      -0.07941375       2.80650875       0.00000000
Si       2.35128231      -3.04447068       0.06349190       0.00000000
Si      -0.14577921       2.63522257       2.80757370       0.00000000
Si       3.48869898      -1.22578992      -1.14569309       0.00000000
Si      -2.81836059      -2.72852613       0.08871757       0.00000000
