10
Lattice="16.28999089631971 0.0 0.0 0.0 16.28999089631971 0.0 0.0 0.0 34.35334932831803" Properties=species:S:1:pos:R:3:initial_magmoms:R:1 pbc="T T T"
Si       1.35601218      -1.35487188       1.36176753       0.00000000
Si      -1.35912357       1.35835181       1.36108046       0.00000000
Si       1.37243250       1.35955194      -1.36514790       0.00000000
Si      -1.36671471      -1.37259540      -1.36193242       0.00000000
Si      -2.57267970       0.07941375      -2.80650875       0.00000000
Si       2.71217097      -2.71308321       0.00075577       0.00000000
Si      -2.71521720      -2.71078632       0.00422546       0.00000000
Si       2.71379997       2.71403522       0.00350404       0.00000000
Si       2.71383255       0.00061902       2.71910347       0.00000000
Si      -0.00185706      -2.71428867       2.71875994       0.00000000
