10
Lattice="16.28999089631971 0.0 0.0 0.0 16.28999089631971 0.0 0.0 0.0 34.35334932831803" Properties=species:S:1:pos:R:3:initial_magmoms:R:1 pbc="T T T"
Si      -1.35697329      -1.35641943      -1.35805736       0.00000000
Si       1.35793440      -1.35757602       1.35706112       0.00000000
Si      -1.35759231       1.35752715       1.35757642       0.00000000
Si       1.35786924       1.35941679      -1.35699241       0.00000000
Si      -0.00003258       2.71303434       2.71484365       0.00000000
Si      -2.71336014       0.00350235      -2.71453447       0.00000000
Si       2.71420722       0.00086337       2.71408788       0.00000000
Si      -2.71466334       2.71464705       0.00010306       0.00000000
Si       0.00014661      -2.71489140       2.71487801       0.00000000
Si       2.71524978      -2.71497285      -0.00006871       0.00000000
