10
Lattice="16.28999089631971 0.0 0.0 0.0 16.28999089631971 0.0 0.0 0.0 34.35334932831803" Properties=species:S:1:pos:R:3:initial_magmoms:R:1 pbc="T T T"
Si      -1.31577588       1.32577794      -1.53552687       0.00000000
Si       1.40706504      -1.36707309      -1.52291918       0.00000000
Si       0.62597583       1.99635579       1.35190811       0.00000000
Si      -0.96702327      -2.01735360       1.72629112       0.00000000
Si      -2.52066573      -2.70117522      -0.08694838       0.00000000
Si       2.65776237       2.59053354      -0.23940863       0.00000000
Si      -2.71520091       2.60275104      -0.05084299       0.00000000
Si       2.58852987      -2.85542523      -0.00085883       0.00000000
Si      -2.66473449      -0.01593162      -2.91952102       0.00000000
Si       0.05051529       2.69687823      -2.92271589       0.00000000
