10
Lattice="16.28999089631971 0.0 0.0 0.0 16.28999089631971 0.0 0.0 0.0 34.35334932831803" Properties=species:S:1:pos:R:3:initial_magmoms:R:1 pbc="T T T"
Si      -2.07474327      -0.92973546      -0.60029076       0.00000000
Si       2.04358050      -1.07981523      -0.57940391       0.00000000
Si      -0.16746120      -0.99642672       2.15972757       0.00000000
Si       0.34285563       2.38822870      -0.11882830       0.00000000
Si      -2.38622436       0.52141032      -2.32998287       0.00000000
Si       3.26832786      -0.04219110       1.12163748       0.00000000
Si       1.87489755      -0.04733874       3.03244055       0.00000000
Si      -0.31516263       0.48915612      -3.53039262       0.00000000
Si       1.56594141      -3.35042946      -0.21027697       0.00000000
Si       0.16371450      -3.30753789       1.67417706       0.00000000
