10
Lattice="16.28999089631971 0.0 0.0 0.0 16.28999089631971 0.0 0.0 0.0 34.35334932831803" Properties=species:S:1:pos:R:3:initial_magmoms:R:1 pbc="T T T"
Si       1.34136747       1.35448328       1.36865194       0.00000000
Si      -1.37243250      -1.35955194       1.36514790       0.00000000
Si      -1.31839857       1.37731208      -1.41106805       0.00000000
Si       1.33745787      -1.45320315      -1.40445846       0.00000000
Si      -1.98364959      -0.57422733      -2.58393705       0.00000000
Si      -0.45641322      -2.50592811      -2.58705393       0.00000000
Si      -2.71909422       2.69225066       0.01434253       0.00000000
Si       2.69851995       2.71469828      -0.02498177       0.00000000
Si       2.69843850      -0.00019755       2.72725896       0.00000000
Si       2.70871749      -2.72229189       0.00940595       0.00000000
