10
Lattice="16.28999089631971 0.0 0.0 0.0 16.28999089631971 0.0 0.0 0.0 34.35334932831803" Properties=species:S:1:pos:R:3:initial_magmoms:R:1 pbc="T T T"
Si       1.35379674       1.34568106      -1.37636771       0.00000000
Si      -1.36524861      -1.36561683      -1.37564629       0.00000000
Si       1.23362541      -1.51195050       1.37856633       0.00000000
Si      -1.34294760       1.41670546       1.43078345       0.00000000
Si      -2.25640935      -0.55252911       2.39398319       0.00000000
Si      -0.72721818      -2.37243717       2.73531826       0.00000000
Si       2.69677692       2.69507950       0.01061519       0.00000000
Si      -2.72907999       2.70371320       0.00041224       0.00000000
Si      -0.00604359       2.70234484      -2.73325706       0.00000000
Si       2.70632286      -0.01099575      -2.73387542       0.00000000
