10
Lattice="16.28999089631971 0.0 0.0 0.0 16.28999089631971 0.0 0.0 0.0 34.35334932831803" Properties=species:S:1:pos:R:3:initial_magmoms:R:1 pbc="T T T"
Si      -1.35835794       1.35339444      -1.35812607       0.00000000
Si       1.35830907      -1.36275685      -1.35781689       0.00000000
Si      -1.36192545      -1.38683347       1.35431285       0.00000000
Si       1.36524861       1.36561683       1.37564629       0.00000000
Si       2.59887402      -0.14633368       2.75421261       0.00000000
Si      -2.71300176       2.71053226       0.00003435       0.00000000
Si       0.00066789       2.71159111      -2.71511848       0.00000000
Si      -2.71467963      -0.00324379      -2.71522154       0.00000000
Si       2.71904535       2.71129789      -0.00072142       0.00000000
Si       2.71616202      -0.00357065      -2.71529025       0.00000000
