10
Lattice="16.28999089631971 0.0 0.0 0.0 16.28999089631971 0.0 0.0 0.0 34.35334932831803" Properties=species:S:1:pos:R:3:initial_magmoms:R:1 pbc="T T T"
Si      -1.38613239       1.28700774      -1.43037121       0.00000000
Si      -0.91346175      -1.96923457       0.96319975       0.00000000
Si       1.34294760      -1.41670546      -1.43078345       0.00000000
Si       0.87619023       1.96128342       1.61725353       0.00000000
Si       0.30812535      -0.18073755       2.76012139       0.00000000
Si       2.66644494       2.67729408       0.05846943       0.00000000
Si      -2.66359419       2.69878059       0.10048360       0.00000000
Si      -0.02166570       2.64404619      -2.80529607       0.00000000
Si       2.69674434      -0.07102440      -2.80715116       0.00000000
Si       2.57657301      -2.92865597      -0.05221712       0.00000000
