10
Lattice="16.28999089631971 0.0 0.0 0.0 16.28999089631971 0.0 0.0 0.0 34.35334932831803" Properties=species:S:1:pos:R:3:initial_magmoms:R:1 pbc="T T T"
Si       2.16924156       0.47513043       0.80541473       0.00000000
Si       0.37478403      -0.90604980      -2.18755380       0.00000000
Si      -1.07083944       2.15857161       0.32333390       0.00000000
Si      -1.76287122      -1.47136167       1.17254917       0.00000000
Si      -1.72758708      -2.15303627      -1.93196474       0.00000000
Si       2.39029686      -0.99709461       2.65876732       0.00000000
Si       0.49034529       3.73669794      -0.52292698       0.00000000
Si       0.04321737       0.74500686      -3.84276780       0.00000000
Si      -1.38445452       2.58799230       2.67115514       0.00000000
Si      -0.06797817      -4.10451704       0.36404265       0.00000000
