10
Lattice="16.28999089631971 0.0 0.0 0.0 16.28999089631971 0.0 0.0 0.0 34.35334932831803" Properties=species:S:1:pos:R:3:initial_magmoms:R:1 pbc="T T T"
Si       1.27746180      -1.41177285      -1.53085481       0.00000000
Si      -1.42576596       1.30466610      -1.51659816       0.00000000
Si       1.68896349       1.08004329       1.43305077       0.00000000
Si      -1.91914119       0.97334379       1.45582705       0.00000000
Si       2.66359419      -2.69878059      -0.10048360       0.00000000
Si       2.70389565       2.77474086      -0.00463770       0.00000000
Si       3.53978442      -0.73749717       1.51676993       0.00000000
Si       2.64192849      -0.05473440      -2.90577968       0.00000000
Si      -0.06944427       2.66180229      -2.90547050       0.00000000
Si      -2.80719054      -2.78930412      -0.06716084       0.00000000
