10
Lattice="16.28999089631971 0.0 0.0 0.0 16.28999089631971 0.0 0.0 0.0 34.35334932831803" Properties=species:S:1:pos:R:3:initial_magmoms:R:1 pbc="T T T"
Si      -0.60688395       1.35961227      -1.81804897       0.00000000
Si      -1.78535142       0.58152042       1.46111747       0.00000000
Si       1.74296484       0.56830923       1.56874657       0.00000000
Si      -0.51725637      -2.11501215      -1.19996316       0.00000000
Si      -0.36281088       3.27806928       0.27685380       0.00000000
Si       0.47480463      -3.42412542       0.46342694       0.00000000
Si      -2.57992875      -1.59902640       1.91901352       0.00000000
Si       1.18925145       2.81395089       2.05494980       0.00000000
Si       0.25997211       0.03197727      -3.78429837       0.00000000
Si      -2.95490826       1.51348761      -1.90771126       0.00000000
