10
Lattice="16.28999089631971 0.0 0.0 0.0 16.28999089631971 0.0 0.0 0.0 34.35334932831803" Properties=species:S:1:pos:R:3:initial_magmoms:R:1 pbc="T T T"
Si       0.33156666      -1.65105666       1.65521400       0.00000000
Si      -1.68352263       1.64051703       0.39526986       0.00000000
Si      -0.49966317      -1.02224637      -2.10294145       0.00000000
Si       1.89501570       1.42855155      -0.47462614       0.00000000
Si       1.74511512      -1.27353591      -2.84796296       0.00000000
Si       2.59310736      -2.33551359       1.00820266       0.00000000
Si      -2.21749254       2.35480095      -1.75525101       0.00000000
Si      -2.25994428       0.32143428      -2.90529873       0.00000000
Si       0.98446986       3.57752835      -0.40980133       0.00000000
Si      -0.58650516       3.51914499       1.33380389       0.00000000
