10
Lattice="16.28999089631971 0.0 0.0 0.0 16.28999089631971 0.0 0.0 0.0 34.35334932831803" Properties=species:S:1:pos:R:3:initial_magmoms:R:1 pbc="T T T"
Si      -1.35278676      -1.34128602      -1.36522348       0.00000000
Si       1.35663120      -1.35431802       1.35616793       0.00000000
Si      -1.35615879       1.35674523       1.35534345       0.00000000
Si       1.35654975       1.35720135      -1.36539868       0.00000000
Si       0.00027693      -2.71388142       2.71264504       0.00000000
Si      -2.71448415       0.00118917       2.71267939       0.00000000
Si       2.71505430       0.00206883       2.71309163       0.00000000
Si       0.00013032       2.71622718       2.71257633       0.00000000
Si       2.71306692       2.71590138      -0.00340098       0.00000000
Si       2.71498914      -2.71502172      -0.00590878       0.00000000
