10
Lattice="16.28999089631971 0.0 0.0 0.0 16.28999089631971 0.0 0.0 0.0 34.35334932831803" Properties=species:S:1:pos:R:3:initial_magmoms:R:1 pbc="T T T"
Si       1.35627282       1.35843939       1.35702676       0.00000000
Si       1.35731538      -1.35739683      -1.35712982       0.00000000
Si      -1.35793440       1.35757602      -1.35706112       0.00000000
Si      -1.35778779      -1.35731538       1.35781689       0.00000000
Si       0.00136836       2.71404432       2.71250763       0.00000000
Si       2.71432125       2.71480995       0.00027483       0.00000000
Si       2.71463076      -2.71531494       0.00044659       0.00000000
Si      -2.71490769       0.00115659      -2.71511848       0.00000000
Si       2.71564074      -0.00184077      -2.71446577       0.00000000
Si      -2.71500543      -2.71518462       0.00106495       0.00000000
