10
Lattice="16.28999089631971 0.0 0.0 0.0 16.28999089631971 0.0 0.0 0.0 34.35334932831803" Properties=species:S:1:pos:R:3:initial_magmoms:R:1 pbc="T T T"
Si       1.18143225       1.42099299       1.52847553       0.00000000
Si      -1.55269764      -1.26903987       1.43650813       0.00000000
Si       1.19987253       0.66528360      -2.06130517       0.00000000
Si       1.06438860      -1.76652018      -1.39206720       0.00000000
Si       2.46285252      -2.81450475       0.16228531       0.00000000
Si       2.43090783      -0.01037673       2.90827858       0.00000000
Si       3.04925994       2.29433247       0.22946237       0.00000000
Si      -2.47142106      -3.09980781       0.27279911       0.00000000
Si      -0.27236880       2.70013266       2.91192347       0.00000000
Si      -0.27842868      -2.70886410       2.90845378       0.00000000
