10
Lattice="16.28999089631971 0.0 0.0 0.0 16.28999089631971 0.0 0.0 0.0 34.35334932831803" Properties=species:S:1:pos:R:3:initial_magmoms:R:1 pbc="T T T"
Si       1.35715940      -1.35705474      -1.35767948       0.00000000
Si       1.35800648       1.35715248       1.35712982       0.00000000
Si      -1.35726026       1.35765747      -1.35771383       0.00000000
Si      -1.35918248      -1.35674197       1.35706112       0.00000000
Si      -2.71170860      -0.00006516       2.71456883       0.00000000
Si       2.71208666      -0.00032580       2.71614908       0.00000000
Si       2.71470935      -2.71442404      -0.00020612       0.00000000
Si      -2.71459193      -2.71493370       0.00000000       0.00000000
Si      -2.71465709       2.71505430      -0.00003435       0.00000000
Si       0.00134203      -2.71454021      -2.71522154       0.00000000
