10
Lattice="16.28999089631971 0.0 0.0 0.0 16.28999089631971 0.0 0.0 0.0 34.35334932831803" Properties=species:S:1:pos:R:3:initial_magmoms:R:1 pbc="T T T"
Si      -1.35558279      -1.35716877      -1.35785124       0.00000000
Si      -1.35726634       1.35723393       1.35719853       0.00000000
Si       1.35737728      -1.35698958       1.35788560       0.00000000
Si       1.35939724       1.36005210      -1.35898491       0.00000000
Si       0.00005213       2.71378368       2.71419094       0.00000000
Si      -2.71512990       0.00112401       2.71384741       0.00000000
Si      -0.00244676      -2.71696023      -2.71219845       0.00000000
Si      -2.71483668      -2.71476108      -0.00030918       0.00000000
Si       2.71544200       0.00317655       2.71415659       0.00000000
Si       2.71508362      -2.71459818       0.00048095       0.00000000
