10
Lattice="16.28999089631971 0.0 0.0 0.0 16.28999089631971 0.0 0.0 0.0 34.35334932831803" Properties=species:S:1:pos:R:3:initial_magmoms:R:1 pbc="T T T"
Si       1.30551318      -1.86952185       0.54683692       0.00000000
Si       0.90099990       1.56240648      -1.57819375       0.00000000
Si      -0.91168614       0.86543883       2.05000291       0.00000000
Si      -1.98180882      -1.21963230      -0.79686074       0.00000000
Si      -2.19776535      -1.16333406       2.35883970       0.00000000
Si      -0.34810101      -2.75279823       2.04083056       0.00000000
Si      -3.79195362      -0.65930517       0.66930668       0.00000000
Si      -0.82991034       2.86111111      -2.53081266       0.00000000
Si      -1.41876126       3.20242245       1.75538842       0.00000000
Si      -3.11054292      -0.00663003      -2.41988563       0.00000000
