10
Lattice="16.28999089631971 0.0 0.0 0.0 16.28999089631971 0.0 0.0 0.0 34.35334932831803" Properties=species:S:1:pos:R:3:initial_magmoms:R:1 pbc="T T T"
Si      -1.35252612       1.35667681       1.35750771       0.00000000
Si      -1.35540945      -1.35819173      -1.35706112       0.00000000
Si       1.35918248       1.35674197      -1.35706112       0.00000000
Si       1.35920737      -1.35568053       1.36300425       0.00000000
Si      -2.71236645       2.71334059       0.00061836       0.00000000
Si      -2.71306692      -0.00116148      -2.71450012       0.00000000
Si       0.00192222       2.71439944      -2.71477495       0.00000000
Si       0.00159642      -2.71558602      -2.71477495       0.00000000
Si      -2.71326240      -2.71737792       0.00041224       0.00000000
Si       2.71634188      -0.00031277      -2.71474059       0.00000000
