10
Lattice="16.28999089631971 0.0 0.0 0.0 16.28999089631971 0.0 0.0 0.0 34.35334932831803" Properties=species:S:1:pos:R:3:initial_magmoms:R:1 pbc="T T T"
Si      -1.24861221       1.42363197       1.36740148       0.00000000
Si       1.34364807       1.35850455      -1.36791678       0.00000000
Si      -1.37066973      -1.35078309      -1.36341649       0.00000000
Si       1.27496943      -1.25506305       1.61684129       0.00000000
Si      -2.27374910      -0.19676691       2.77544300       0.00000000
Si       1.95797655       0.72511677       2.97349017       0.00000000
Si      -0.64618520      -2.19903597       3.02436750       0.00000000
Si       2.69733078      -2.70586674       0.03445643       0.00000000
Si       2.70172908       2.71899648      -0.01003118       0.00000000
Si       0.21766046       2.62884762       2.78296638       0.00000000
