10
Lattice="16.28999089631971 0.0 0.0 0.0 16.28999089631971 0.0 0.0 0.0 34.35334932831803" Properties=species:S:1:pos:R:3:initial_magmoms:R:1 pbc="T T T"
Si       0.86576463       2.16945333       0.20533008       0.00000000
Si       0.46931490      -0.75652389      -2.18267562       0.00000000
Si      -2.24477829       0.25128954       0.74502150       0.00000000
Si       0.62786547      -1.71562696       1.60378701       0.00000000
Si      -2.92706865      -1.96581856       0.47256494       0.00000000
Si      -1.74511512       1.27353591       2.84796296       0.00000000
Si       0.14990058       2.70208746       2.37333682       0.00000000
Si      -0.68128038      -2.77994144      -2.21764735       0.00000000
Si      -1.19615841      -3.26452319       1.42518385       0.00000000
Si      -0.19839591       1.01346606      -3.62905550       0.00000000
