10
Lattice="16.28999089631971 0.0 0.0 0.0 16.28999089631971 0.0 0.0 0.0 34.35334932831803" Properties=species:S:1:pos:R:3:initial_magmoms:R:1 pbc="T T T"
Si      -0.22012677      -0.65364928      -2.25237861       0.00000000
Si       1.45020096      -1.61572088       1.00054186       0.00000000
Si       1.74570156       1.63576035       0.23703824       0.00000000
Si      -2.26154070       0.68445693       0.64701134       0.00000000
Si       1.67117481       1.57218048       2.65194264       0.00000000
Si      -2.59310736       2.33551359      -1.00820266       0.00000000
Si       2.94180363      -2.11242923      -0.80448718       0.00000000
Si       1.76164947      -1.84758641      -2.84002733       0.00000000
Si      -2.04415065      -2.20254551      -2.43098177       0.00000000
Si       2.57644499      -0.63166104       2.94930539       0.00000000
