10
Lattice="16.28999089631971 0.0 0.0 0.0 16.28999089631971 0.0 0.0 0.0 34.35334932831803" Properties=species:S:1:pos:R:3:initial_magmoms:R:1 pbc="T T T"
Si       1.54755000       1.64546919      -0.55480690       0.00000000
Si      -1.05138918      -1.00515816      -1.82656860       0.00000000
Si      -1.53409446       1.02133413       1.46146100       0.00000000
Si       1.36638891      -1.61481141       1.17553792       0.00000000
Si       2.07238122       0.71676000      -2.68042158       0.00000000
Si       0.65052486      -1.08217728       3.34354465       0.00000000
Si      -0.26002098       1.06679952       3.40836946       0.00000000
Si      -3.24392544      -1.31473332      -1.20731478       0.00000000
Si       0.30222837      -2.77079868      -2.65884766       0.00000000
Si       2.98066275       2.05936551       1.37039022       0.00000000
