10
Lattice="16.28999089631971 0.0 0.0 0.0 16.28999089631971 0.0 0.0 0.0 34.35334932831803" Properties=species:S:1:pos:R:3:initial_magmoms:R:1 pbc="T T T"
Si      -1.38277665       1.30948794       1.42314326       0.00000000
Si       1.34734058      -1.39199679       1.41064550       0.00000000
Si      -1.35083196      -1.49464008      -1.32285001       0.00000000
Si       1.01090853       1.73490129      -1.56744599       0.00000000
Si      -2.63225223       2.74085766       0.04334021       0.00000000
Si      -0.02625948       2.66818797       2.78514095       0.00000000
Si       2.73174733       2.73362490       0.06473892       0.00000000
Si       2.68684232      -0.04305447       2.78898853       0.00000000
Si       2.89330341      -2.61195489       0.01180038       0.00000000
Si      -0.76442454       3.61419714      -1.25567296       0.00000000
