10
Lattice="16.28999089631971 0.0 0.0 0.0 16.28999089631971 0.0 0.0 0.0 34.35334932831803" Properties=species:S:1:pos:R:3:initial_magmoms:R:1 pbc="T T T"
Si      -2.19594087       0.14674032       0.96642896       0.00000000
Si       1.05414219       0.94485258       1.96666164       0.00000000
Si       0.39781809      -2.39914233      -0.46009466       0.00000000
Si       0.43940646       0.25992324      -2.60687102       0.00000000
Si      -0.77722848      -3.25347138       1.48076760       0.00000000
Si      -2.83751389      -2.12555178       1.27550622       0.00000000
Si      -1.30090963       2.16365409      -2.79739480       0.00000000
Si       0.06481791      -0.13548393       3.84187462       0.00000000
Si       0.31859982       3.22783092       2.07676419       0.00000000
Si      -2.01839290       0.93366135       3.18074404       0.00000000
