10
Lattice="16.28999089631971 0.0 0.0 0.0 16.28999089631971 0.0 0.0 0.0 34.35334932831803" Properties=species:S:1:pos:R:3:initial_magmoms:R:1 pbc="T T T"
Si       0.78367932       0.46059975      -2.16869380       0.00000000
Si       1.09450881      -1.47606948       1.48317233       0.00000000
Si      -2.31204785      -0.46538901       0.17530524       0.00000000
Si       0.08394237       1.94523777       1.35585875       0.00000000
Si       2.95484310      -0.38543769      -1.76892365       0.00000000
Si      -2.35902332      -0.72215199       2.51631554       0.00000000
Si      -0.53713017       3.49710462      -0.30516097       0.00000000
Si       0.90015282       2.78860365      -2.05220153       0.00000000
Si      -1.09838583       1.17962406       3.30695831       0.00000000
Si      -0.65174661      -2.28729519       2.85648259       0.00000000
