10
Lattice="16.28999089631971 0.0 0.0 0.0 16.28999089631971 0.0 0.0 0.0 34.35334932831803" Properties=species:S:1:pos:R:3:initial_magmoms:R:1 pbc="T T T"
Si      -1.70727671       1.56514320      -0.34016706       0.00000000
Si      -1.05129144      -2.03973606      -0.50794891       0.00000000
Si       0.84054771       0.29478384       2.17635460       0.00000000
Si       1.74625542       0.81122571      -1.37331026       0.00000000
Si      -0.44663922       3.46691925       0.45047572       0.00000000
Si       2.28941289      -1.74773781       2.09936870       0.00000000
Si       2.76192063      -1.17693621      -2.01915359       0.00000000
Si      -3.11706611      -1.71159030       0.67105870       0.00000000
Si       1.23259914       2.71446786       2.06316025       0.00000000
Si      -1.66030123       1.82190618      -2.68117735       0.00000000
