10
Lattice="16.28999089631971 0.0 0.0 0.0 16.28999089631971 0.0 0.0 0.0 34.35334932831803" Properties=species:S:1:pos:R:3:initial_magmoms:R:1 pbc="T T T"
Si       1.33950174       1.34894232       1.37834303       0.00000000
Si      -1.37167784      -1.37073834       1.37198766       0.00000000
Si      -1.34734058       1.39199679      -1.41064550       0.00000000
Si       1.54596283      -1.21995810      -1.39884512       0.00000000
Si       0.10475558      -2.60560179      -2.63186172       0.00000000
Si       2.68905168       2.69255781       0.01446277       0.00000000
Si      -2.73011723       2.70148473       0.01249776       0.00000000
Si      -2.69817254      -0.10264329      -2.73349551       0.00000000
Si       2.70307737      -0.00975771       2.73176269       0.00000000
Si      -0.01168913       2.70255987       2.73433919       0.00000000
