10
Lattice="16.28999089631971 0.0 0.0 0.0 16.28999089631971 0.0 0.0 0.0 34.35334932831803" Properties=species:S:1:pos:R:3:initial_magmoms:R:1 pbc="T T T"
Si      -2.12393322      -0.84176946       0.46438884       0.00000000
Si       0.04033241       2.32495767      -0.34466735       0.00000000
Si      -0.17754797      -0.78692103      -2.21431508       0.00000000
Si       2.08321081      -1.06914528       0.66113058       0.00000000
Si       3.07253509       0.01119123      -1.21408240       0.00000000
Si       2.33699272       2.29416957      -1.10397985       0.00000000
Si      -1.88205930      -3.14113554       0.20825012       0.00000000
Si      -0.81912098      -3.05921313      -1.90523782       0.00000000
Si      -2.64876444       0.08693973       2.59000351       0.00000000
Si      -0.89701929       3.22164072       1.72402380       0.00000000
