10
Lattice="16.28999089631971 0.0 0.0 0.0 16.28999089631971 0.0 0.0 0.0 34.35334932831803" Properties=species:S:1:pos:R:3:initial_magmoms:R:1 pbc="T T T"
Si       1.33904452       1.35392869      -1.38447510       0.00000000
Si      -1.37301726      -1.35816802      -1.38055882       0.00000000
Si      -1.33847192       1.37386765       1.45125805       0.00000000
Si       1.29159175      -1.45533787       1.48451211       0.00000000
Si      -2.39177992      -0.43948791       2.57980056       0.00000000
Si      -0.71353784      -2.27832496       2.77798515       0.00000000
Si       2.69515444       2.71588672       0.01659268       0.00000000
Si       2.69101678      -2.73231097      -0.00017177       0.00000000
Si       2.69912920      -0.00176909      -2.74187976       0.00000000
Si      -2.74177057       2.70358777       0.00092754       0.00000000
