10
Lattice="16.28999089631971 0.0 0.0 0.0 16.28999089631971 0.0 0.0 0.0 34.35334932831803" Properties=species:S:1:pos:R:3:initial_magmoms:R:1 pbc="T T T"
Si       1.36018242      -1.35275418      -1.35764512       0.00000000
Si      -1.35708406      -1.35638685       1.35740465       0.00000000
Si      -1.35833188       1.35456237      -1.35950021       0.00000000
Si       1.35887922       1.35839052       1.35699241       0.00000000
Si      -2.71173656      -2.71414206       0.00058401       0.00000000
Si       0.00123804      -2.71397916       2.71419094       0.00000000
Si      -2.71435142       0.00118917       2.71422529       0.00000000
Si      -2.71260170       2.71652040      -0.00082448       0.00000000
Si       2.71656927      -2.71267596      -0.00116801       0.00000000
Si       2.71595025       0.00127062       2.71446577       0.00000000
