10
Lattice="16.28999089631971 0.0 0.0 0.0 16.28999089631971 0.0 0.0 0.0 34.35334932831803" Properties=species:S:1:pos:R:3:initial_magmoms:R:1 pbc="T T T"
Si       1.55633031       1.41444441      -1.07309617       0.00000000
Si       1.06241751       0.96635538       1.87545345       0.00000000
Si       1.28210445      -1.99347246      -0.46418272       0.00000000
Si      -2.08646230       0.73280565      -1.05433923       0.00000000
Si       3.13347924       0.93410118       0.67504369       0.00000000
Si      -3.57191549      -0.27419328       0.51159036       0.00000000
Si       0.27393264      -3.42186111       1.43538680       0.00000000
Si       3.54364515      -1.39101939       0.26692567       0.00000000
Si       1.37389860      -0.48479040       3.60514555       0.00000000
Si       0.98091864       3.68778789      -0.92850284       0.00000000
