10
Lattice="16.290000149 0.0 0.0 0.0 16.290000149 0.0 0.0 0.0 29.1751946751" Properties=species:S:1:pos:R:3:initial_magmoms:R:1 pbc="T T T"
Si      -1.33548679      -1.36367827       1.36895848       0.00000000
Si       1.35005005      -1.34938705      -1.37345146       0.00000000
Si       1.35998695       1.34597755       1.36752890       0.00000000
Si      -1.36902790       1.34439742      -1.36332767       0.00000000
Si      -2.69708645      -2.70646949      -0.00831493       0.00000000
Si       2.71373483       2.69299766      -0.00679782       0.00000000
Si      -0.01014867       2.73331541       2.67819535       0.00000000
Si       2.72461655      -2.69581583      -0.03696497       0.00000000
Si      -0.01888011       2.70875009      -2.71962412       0.00000000
Si      -2.76076407      -0.00131949       2.66719630       0.00000000
