10
Lattice="16.290000149 0.0 0.0 0.0 16.290000149 0.0 0.0 0.0 29.1751946751" Properties=species:S:1:pos:R:3:initial_magmoms:R:1 pbc="T T T"
Si       1.61440417      -0.16333983      -1.67649421       0.00000000
Si      -0.42591834       2.29092788      -0.30418058       0.00000000
Si       0.25795215      -0.51565995       2.29530534       0.00000000
Si      -1.89237674      -1.30489417      -0.63666110       0.00000000
H        1.35557236      -2.23552559       1.50182232       0.00000000
H       -2.78187591      -0.45778158      -1.52492908       0.00000000
Si      -1.48571317       1.02768724       2.74866219       0.00000000
Si       0.06112008      -0.95104279      -3.27465303       0.00000000
Si      -2.31811589       2.27672626       1.03761580       0.00000000
Si      -0.85437793      -2.78915754      -2.10767441       0.00000000
