10
Lattice="16.290000149 0.0 0.0 0.0 16.290000149 0.0 0.0 0.0 29.1751946751" Properties=species:S:1:pos:R:3:initial_magmoms:R:1 pbc="T T T"
Si       1.36757809       1.34864911       1.33940401       0.00000000
Si       1.44256096      -1.33285270      -1.28239568       0.00000000
Si      -1.34987086      -1.38713750       1.33584464       0.00000000
Si      -1.37705887       1.34081362      -1.35816366       0.00000000
Si       0.12189807      -2.67102115      -2.62204185       0.00000000
Si       0.03430674       2.74530486      -2.61599967       0.00000000
Si       0.00268785       2.69599502       2.68969037       0.00000000
Si       2.69329088      -0.03435561       2.69902643       0.00000000
Si      -2.71254566      -0.02472822       2.68157967       0.00000000
Si      -2.79622740      -0.08905743      -2.59350851       0.00000000
