10
Lattice="16.290000149 0.0 0.0 0.0 16.290000149 0.0 0.0 0.0 29.1751946751" Properties=species:S:1:pos:R:3:initial_magmoms:R:1 pbc="T T T"
Si      -1.39820329       1.42462567      -1.22276158       0.00000000
Si      -1.32605488      -1.38144088       1.37651486       0.00000000
Si       1.19804806      -1.47020509      -1.43250206       0.00000000
Si       1.30686526       1.44889777       1.36749972       0.00000000
H        3.23744205       1.72667486      -0.51605084       0.00000000
Si      -0.01050705       2.65730627      -2.65453426       0.00000000
Si       2.66341502      -2.68467347       0.02123954       0.00000000
Si       2.53032572      -0.13968675      -2.83183192       0.00000000
Si      -2.89976664       0.13812291      -2.50682025       0.00000000
Si       2.71516835       0.08692344       2.72340814       0.00000000
