10
Lattice="16.290000149 0.0 0.0 0.0 16.290000149 0.0 0.0 0.0 29.1751946751" Properties=species:S:1:pos:R:3:initial_magmoms:R:1 pbc="T T T"
Si      -1.38526415       1.44796599      -1.15218679       0.00000000
Si       1.52546077      -1.26864892      -1.21044965       0.00000000
Si       0.84647728       1.66390134       1.39425338       0.00000000
Si      -0.92382220      -1.73016092       1.27451838       0.00000000
H        0.23170896       2.96816835       0.95265763       0.00000000
Si       2.55700874      -2.09407952       0.74399664       0.00000000
Si       0.11051136      -2.66310551      -2.50696613       0.00000000
Si      -2.61646938       0.08437634      -2.59440419       0.00000000
Si       0.09348831       1.08905819       3.54819965       0.00000000
Si       0.72599644      -3.38683764       1.37543538       0.00000000
