10
Lattice="16.290000149 0.0 0.0 0.0 16.290000149 0.0 0.0 0.0 29.1751946751" Properties=species:S:1:pos:R:3:initial_magmoms:R:1 pbc="T T T"
H       -1.03353535      -1.10842048       0.20968212       0.00000000
Si       1.49213469      -1.06730452      -1.42879681       0.00000000
Si       1.17453833      -0.14571405       2.01763976       0.00000000
Si      -1.25358067       1.65100781      -1.14932762       0.00000000
H       -1.55015641       0.43152210       2.02531284       0.00000000
Si       0.01400940      -2.20038806       2.60400283       0.00000000
Si      -2.55384848      -0.02010186      -2.32724693       0.00000000
Si      -2.00135684      -0.84714517       2.69841376       0.00000000
Si       0.06986781      -2.50654232      -2.59180759       0.00000000
Si       3.05323473      -2.14329161      -0.06427295       0.00000000
