10
Lattice="16.290000149 0.0 0.0 0.0 16.290000149 0.0 0.0 0.0 29.1751946751" Properties=species:S:1:pos:R:3:initial_magmoms:R:1 pbc="T T T"
Si       0.34555977      -0.88353703      -2.13428219       0.00000000
Si      -1.82177588       1.45741744       0.16626943       0.00000000
Si       1.62147403       1.68622679       0.07229613       0.00000000
Si       0.22683825      -1.51233103       1.83374851       0.00000000
H       -0.91328257      -1.44707329       2.82517998       0.00000000
Si       1.05863824       2.72313416       2.08051231       0.00000000
Si       2.28607346      -0.81867025       2.74205985       0.00000000
Si       1.40157532       0.87900841      -3.31471057       0.00000000
Si      -3.65278818       0.16465932       0.79770817       0.00000000
H       -1.83707219       0.31998447       3.28932815       0.00000000
