10
Lattice="16.290000149 0.0 0.0 0.0 16.290000149 0.0 0.0 0.0 29.1751946751" Properties=species:S:1:pos:R:3:initial_magmoms:R:1 pbc="T T T"
Si       1.25907040       1.36958176      -1.42432717       0.00000000
Si       1.37381716      -1.26341983       1.41806325       0.00000000
Si      -0.81256150      -1.85701115      -1.18367441       0.00000000
Si      -1.42154686       1.37622808       1.29968490       0.00000000
Si      -2.68718213      -2.65843028       0.01399826       0.00000000
Si      -0.05484843      -2.65222379       2.69929485       0.00000000
Si       2.66001041      -2.71179632       0.08845627       0.00000000
Si       2.64507248       2.75035476      -0.08203481       0.00000000
Si      -0.08123823       2.74789497       2.66279668       0.00000000
Si      -0.19417680       2.78508504      -2.64262495       0.00000000
