10
Lattice="16.290000149 0.0 0.0 0.0 16.290000149 0.0 0.0 0.0 29.1751946751" Properties=species:S:1:pos:R:3:initial_magmoms:R:1 pbc="T T T"
H       -0.15609078       0.79583167       1.27492683       0.00000000
Si       1.08222616       1.16884009      -1.70257684       0.00000000
Si      -2.20920095       0.08244369      -0.80981588       0.00000000
Si       0.86335372      -2.07585101       0.79339024       0.00000000
H       -1.44884890      -1.87758542       1.70969558       0.00000000
H       -1.55696563       2.82986625       0.81763483       0.00000000
Si      -2.73131175      -1.91674658       0.89144807       0.00000000
Si       1.95810689      -0.61072840      -2.98774416       0.00000000
Si       0.71884513      -1.66219904       3.15194216       0.00000000
Si      -2.75283084       2.46441638      -0.07209191       0.00000000
