10
Lattice="16.290000149 0.0 0.0 0.0 16.290000149 0.0 0.0 0.0 29.1751946751" Properties=species:S:1:pos:R:3:initial_magmoms:R:1 pbc="T T T"
H       -0.18134028       1.38700880       0.60958652       0.00000000
Si       0.83240272      -1.24903902       1.71104639       0.00000000
Si       1.89219755       0.01420162      -1.34179638       0.00000000
Si      -1.89315866      -0.54937863      -1.29076896       0.00000000
Si       0.64273825       1.11696947      -2.95075001       0.00000000
Si      -2.62870103       1.63707660      -0.89010601       0.00000000
Si      -0.68880637       2.66370499      -1.79144448       0.00000000
Si       1.87515821       0.60269905       2.66279084       0.00000000
Si       2.31811589      -2.27672626      -1.03761580       0.00000000
Si      -0.99960328      -2.27209990       2.65297631       0.00000000
