10
Lattice="16.290000149 0.0 0.0 0.0 16.290000149 0.0 0.0 0.0 29.1751946751" Properties=species:S:1:pos:R:3:initial_magmoms:R:1 pbc="T T T"
Si       0.90981280       0.07055199      -1.21651809       0.00000000
H       -1.21849201      -1.75448189      -0.43902833       0.00000000
H        1.88498108       0.41313069       1.24050010       0.00000000
Si      -1.77534938      -2.00823122       0.94373002       0.00000000
Si       1.18102501       2.93831041       0.24860183       0.00000000
Si       0.01808190       1.48924810      -2.80962960       0.00000000
Si       1.24551712      -2.05255631      -2.14808206       0.00000000
Si       2.79645546       1.41045337      -0.82866305       0.00000000
Si      -2.61798221      -0.11609883       2.05247495       0.00000000
H       -2.87762853      -0.91390159      -1.60081376       0.00000000
