10
Lattice="16.290000149 0.0 0.0 0.0 16.290000149 0.0 0.0 0.0 29.1751946751" Properties=species:S:1:pos:R:3:initial_magmoms:R:1 pbc="T T T"
Si      -1.36757809      -1.34864911      -1.33940401       0.00000000
Si      -1.36489024       1.34734591       1.35028636       0.00000000
Si       1.32571279      -1.38300472       1.35962242       0.00000000
Si       1.38483995       1.33164235      -1.36624519       0.00000000
Si       0.07498287      -2.68150181      -2.62179969       0.00000000
Si       2.69566922      -0.01383021       2.68481811       0.00000000
Si      -0.00599472       2.71295291       2.68102534       0.00000000
Si      -2.69459408       2.71386515      -0.02474057       0.00000000
Si       0.05574438       2.73997803      -2.67644483       0.00000000
Si      -2.72065808      -0.02994102       2.70602848       0.00000000
