10
Lattice="16.290000149 0.0 0.0 0.0 16.290000149 0.0 0.0 0.0 29.1751946751" Properties=species:S:1:pos:R:3:initial_magmoms:R:1 pbc="T T T"
Si      -1.33702131      -1.35055504       1.36960034       0.00000000
Si       1.35174421      -1.36158337      -1.36058520       0.00000000
Si      -1.40600783       1.33786839      -1.33298547       0.00000000
Si       1.34353405       1.34690934       1.38812659       0.00000000
Si       2.65193057       2.69335604      -0.03468931       0.00000000
Si      -2.71657143       0.04438439       2.66783815       0.00000000
Si      -0.05864400       2.69180849      -2.70874177       0.00000000
Si       2.71560818      -0.01179396      -2.71020053       0.00000000
Si      -2.71652769      -2.71060715       0.01318719       0.00000000
Si      -0.07477110       2.70299972       2.72405875       0.00000000
