10
Lattice="16.290000149 0.0 0.0 0.0 16.290000149 0.0 0.0 0.0 29.1751946751" Properties=species:S:1:pos:R:3:initial_magmoms:R:1 pbc="T T T"
Si       1.42540759      -1.36034533      -1.26979200       0.00000000
Si       1.35624025       1.35070165       1.35317470       0.00000000
Si      -1.32493087      -1.38645820       1.38191227       0.00000000
Si      -1.34791606       1.33524244      -1.41400499       0.00000000
Si       0.03639186      -2.70366761      -2.54875084       0.00000000
Si      -2.68780115       2.61742835       0.04256661       0.00000000
Si       2.69650001       2.70471017      -0.03150921       0.00000000
Si       2.70202232      -0.03008763       2.70710796       0.00000000
Si       0.01309716       2.68179014       2.74004676       0.00000000
Si      -2.71093295      -0.07004700      -2.73604684       0.00000000
