10
Lattice="16.290000149 0.0 0.0 0.0 16.290000149 0.0 0.0 0.0 29.1751946751" Properties=species:S:1:pos:R:3:initial_magmoms:R:1 pbc="T T T"
Si      -1.31219209       0.45882414      -0.60640642       0.00000000
H        0.57102967      -0.12067632      -2.33404475       0.00000000
Si       1.75659959      -0.63426745      -1.53546132       0.00000000
Si       1.06497505      -2.49707783      -0.11637985       0.00000000
Si      -2.57284262       0.70771906       1.33146836       0.00000000
Si       0.43256466      -2.16479441       2.21305522       0.00000000
Si      -2.28433043      -1.53787375      -1.48414215       0.00000000
Si      -1.34573320      -0.61572943       2.84566096       0.00000000
Si      -1.04252743       2.48916089      -1.80241435       0.00000000
Si       3.05686740       1.03684222      -0.35754201       0.00000000
