10
Lattice="16.290000149 0.0 0.0 0.0 16.290000149 0.0 0.0 0.0 29.1751946751" Properties=species:S:1:pos:R:3:initial_magmoms:R:1 pbc="T T T"
Si       1.35081568       1.39680235      -1.32360564       0.00000000
Si      -1.35307999       1.36884871       1.35728841       0.00000000
Si       1.37657017      -1.34881201       1.35848459       0.00000000
Si      -1.36132273      -1.37036368      -1.35994918       0.00000000
Si       2.73582408       0.04017114      -2.64478391       0.00000000
Si      -2.70942776      -2.69749370       0.01870130       0.00000000
Si       2.68884371       2.72152145       0.08177807       0.00000000
Si      -2.69963258       0.02075346       2.72542999       0.00000000
Si       0.02015073      -2.69268815       2.73313224       0.00000000
Si      -2.71897859       2.71383257      -0.01768017       0.00000000
