10
Lattice="16.290000149 0.0 0.0 0.0 16.290000149 0.0 0.0 0.0 29.1751946751" Properties=species:S:1:pos:R:3:initial_magmoms:R:1 pbc="T T T"
Si      -1.32742324       1.35816247       1.36653694       0.00000000
Si       1.37705887      -1.34081362       1.35816366       0.00000000
Si       1.41136561       1.40449123      -1.25783600       0.00000000
Si      -1.41916852      -1.42987105      -1.23534485       0.00000000
Si       0.08052147      -2.66546268      -2.51390982       0.00000000
Si       2.66826944       0.00011403      -2.62020965       0.00000000
Si      -2.66950748      -0.06068025      -2.64943736       0.00000000
Si      -2.64460007       2.74905156       0.02503232       0.00000000
Si       0.05004288       2.72170064       2.67282711       0.00000000
Si       0.09330912       2.66522321      -2.73065526       0.00000000
