10
Lattice="16.290000149 0.0 0.0 0.0 16.290000149 0.0 0.0 0.0 29.1751946751" Properties=species:S:1:pos:R:3:initial_magmoms:R:1 pbc="T T T"
Si       1.38920307      -1.34908894       1.32960115       0.00000000
Si       1.37589414       1.34781832      -1.34996543       0.00000000
Si      -1.31438756      -1.36546039      -1.39463266       0.00000000
Si      -1.36980168       1.34014573       1.37951991       0.00000000
Si      -2.66177788      -2.71937117      -0.03714002       0.00000000
Si       0.02899457      -2.69926931       2.68289255       0.00000000
Si      -2.70183499       2.70639619       0.00749803       0.00000000
Si       0.02934806       2.70700381      -2.70524075       0.00000000
Si      -2.68271053      -0.00881289      -2.73564130       0.00000000
Si       2.70750391      -2.71153568      -0.06144296       0.00000000
