10
Lattice="16.290000149 0.0 0.0 0.0 16.290000149 0.0 0.0 0.0 29.1751946751" Properties=species:S:1:pos:R:3:initial_magmoms:R:1 pbc="T T T"
Si      -1.37046142       1.34514676       1.33960824       0.00000000
Si      -1.38548080      -1.35040843      -1.32467054       0.00000000
Si       1.36285399      -1.36562329       1.33552371       0.00000000
Si       1.37091754       1.35808102      -1.33768268       0.00000000
Si       0.00734679       2.68087790       2.68408873       0.00000000
Si      -0.05504391      -2.76954926      -2.61091735       0.00000000
Si      -0.00153126      -2.71299038       2.68578090       0.00000000
Si       2.69834078      -0.00008145      -2.70421962       0.00000000
Si      -2.72060921      -0.01920591       2.69590469       0.00000000
Si      -2.71630865       2.70433550      -0.02850417       0.00000000
