10
Lattice="16.290000149 0.0 0.0 0.0 16.290000149 0.0 0.0 0.0 29.1751946751" Properties=species:S:1:pos:R:3:initial_magmoms:R:1 pbc="T T T"
Si      -0.55685737      -0.25374933       1.38275835       0.00000000
H       -0.73534690      -0.92647747      -1.62593360       0.00000000
H        1.21849201       1.75448189       0.43902833       0.00000000
H       -1.65913652       0.84058030      -1.16178543       0.00000000
Si       0.40477392      -0.99173521      -2.61736506       0.00000000
Si       2.12830481       1.82503388      -0.77748976       0.00000000
Si       2.46400913      -0.29807442      -1.70905373       0.00000000
Si       1.10371267      -1.19868337       2.71551042       0.00000000
Si      -2.33530184      -1.88149502       1.24172546       0.00000000
Si      -1.39949020       1.63838305       2.49150327       0.00000000
