10
Lattice="16.290000149 0.0 0.0 0.0 16.290000149 0.0 0.0 0.0 29.1751946751" Properties=species:S:1:pos:R:3:initial_magmoms:R:1 pbc="T T T"
Si      -1.67692520       1.68003659       0.24962297       0.00000000
Si       0.35710938      -0.23457600       2.36053583       0.00000000
Si       1.63841563       1.05640651      -1.43401917       0.00000000
Si      -1.07062768      -1.69111379      -1.38351691       0.00000000
H        1.88735779      -1.63883918       0.25735439       0.00000000
H        0.53501247       2.45452835       1.36747055       0.00000000
H       -1.08587512       0.04820211       2.80347363       0.00000000
Si      -2.41251644      -0.27593631      -2.75440095       0.00000000
Si       0.34798698       2.47267541      -2.79069490       0.00000000
Si      -3.53934462       0.83926081      -1.00210959       0.00000000
