10
Lattice="16.290000149 0.0 0.0 0.0 16.290000149 0.0 0.0 0.0 29.1751946751" Properties=species:S:1:pos:R:3:initial_magmoms:R:1 pbc="T T T"
Si      -1.55718229       1.24480036      -1.19419907       0.00000000
Si       1.15160527       1.50842143       1.42114999       0.00000000
Si      -1.51749985      -1.18089469       1.41811577       0.00000000
Si       0.97772581      -1.20896236      -1.88366727       0.00000000
H       -0.97694389       2.77889484      -1.52580433       0.00000000
Si      -1.07471647      -2.23252823      -2.61027549       0.00000000
Si      -2.54436282      -0.33071958      -2.63965491       0.00000000
Si       2.37951290       0.52329996      -2.79320396       0.00000000
Si       2.52517808       0.14833674       2.77935742       0.00000000
Si      -0.15874605      -2.51641406       2.79268756       0.00000000
