10
Lattice="16.290000149 0.0 0.0 0.0 16.290000149 0.0 0.0 0.0 29.1751946751" Properties=species:S:1:pos:R:3:initial_magmoms:R:1 pbc="T T T"
Si       1.35875380      -1.33551937       1.37457179       0.00000000
Si      -1.50326891      -1.37529955      -1.18394370       0.00000000
Si      -1.40209172       1.36518346       1.35477059       0.00000000
Si       1.51749985       1.18089469      -1.41811577       0.00000000
Si      -0.03968244       2.42569505      -2.61231484       0.00000000
Si      -2.66743377       0.10676466      -2.56458422       0.00000000
Si      -0.24259883      -2.80161939      -2.51451959       0.00000000
Si       2.66910512       2.68931612       0.00303422       0.00000000
Si      -0.01775773      -2.69192252       2.73001341       0.00000000
Si       2.68008458       0.01576872       2.75790490       0.00000000
