10
Lattice="16.290000149 0.0 0.0 0.0 16.290000149 0.0 0.0 0.0 29.1751946751" Properties=species:S:1:pos:R:3:initial_magmoms:R:1 pbc="T T T"
Si       1.33702131       1.35055504      -1.36960034       0.00000000
Si      -1.37955012       1.39493943       1.29823781       0.00000000
Si       1.34743062      -1.35254242       1.38567587       0.00000000
Si      -1.37950638      -1.36005211      -1.35641315       0.00000000
Si      -0.11883392      -2.73399960       2.60067685       0.00000000
Si      -2.69200072       0.05883948       2.66468723       0.00000000
Si       2.68589848      -2.68371236      -0.02223150       0.00000000
Si       2.68055536       2.69746438       0.01852625       0.00000000
Si      -0.06898652       2.68842343      -2.70258581       0.00000000
Si       2.68876552      -0.01102833      -2.73018554       0.00000000
