10
Lattice="16.290000149 0.0 0.0 0.0 16.290000149 0.0 0.0 0.0 29.1751946751" Properties=species:S:1:pos:R:3:initial_magmoms:R:1 pbc="T T T"
Si      -1.35979147       1.35274279      -1.35305800       0.00000000
Si      -1.35961228      -1.36363591       1.34229236       0.00000000
Si       1.33172380       1.35455424       1.38348773       0.00000000
Si       1.35084826      -1.36065484      -1.35965160       0.00000000
Si       2.68337027       2.70552467       0.01012379       0.00000000
Si      -2.71228502       0.02135619       2.67942070       0.00000000
Si       0.02746494      -2.70625772       2.68939862       0.00000000
Si      -2.70606224      -0.03530043      -2.69254954       0.00000000
Si       2.66375711      -0.01169622       2.75550961       0.00000000
Si      -0.00992061       2.73988029      -2.68890264       0.00000000
