10
Lattice="16.290000149 0.0 0.0 0.0 16.290000149 0.0 0.0 0.0 29.1751946751" Properties=species:S:1:pos:R:3:initial_magmoms:R:1 pbc="T T T"
Si      -0.84416410      -0.93467134      -0.80946578       0.00000000
H        1.43904232       0.91080649       0.54933974       0.00000000
H        0.80736499      -0.74619604       1.65277478       0.00000000
Si       2.08502228       1.73734481      -0.52775010       0.00000000
Si      -1.09390609       2.74919817      -0.05724173       0.00000000
Si      -0.80619211       1.86364118       2.18440518       0.00000000
Si      -2.13877928       0.35927595      -2.23624950       0.00000000
Si       0.58547890      -2.37855179      -1.93061016       0.00000000
Si      -2.67573026      -1.75969469       0.35436191       0.00000000
Si       1.99293491      -1.25978716       2.45135821       0.00000000
