10
Lattice="16.290000149 0.0 0.0 0.0 16.290000149 0.0 0.0 0.0 29.1751946751" Properties=species:S:1:pos:R:3:initial_magmoms:R:1 pbc="T T T"
Si       1.35961228       1.36363591      -1.34229236       0.00000000
Si      -1.35267274       1.38499210       1.33712835       0.00000000
Si       1.38707722      -1.34262181       1.34710626       0.00000000
Si      -1.35721765      -1.36298431      -1.35778439       0.00000000
Si      -2.70759350       0.03008763       2.67116412       0.00000000
Si       0.04953789      -2.79008607       2.60318592       0.00000000
Si       2.69133608       2.71819015       0.04119537       0.00000000
Si      -0.00017919       2.71637870      -2.69535036       0.00000000
Si       2.71046054       0.00298107      -2.70194395       0.00000000
Si      -2.72639216      -0.01498680      -2.69940571       0.00000000
