10
Lattice="16.290000149 0.0 0.0 0.0 16.290000149 0.0 0.0 0.0 29.1751946751" Properties=species:S:1:pos:R:3:initial_magmoms:R:1 pbc="T T T"
Si      -1.17453833       0.14571405      -2.01763976       0.00000000
Si       0.18503322       1.90682597       1.37254703       0.00000000
Si       2.30228527      -0.18049320      -0.59905427       0.00000000
Si      -1.16052893      -2.05467401       0.58636306       0.00000000
H       -2.72469475       0.57723616       0.00767308       0.00000000
H       -2.20807368      -0.96270643      -1.80795764       0.00000000
Si      -3.17589517      -0.70143112       0.68077399       0.00000000
Si       1.76854341       0.90269407       2.73972583       0.00000000
Si       1.87869640      -1.99757756      -2.08191272       0.00000000
Si       0.31759636      -0.92159047      -3.44643657       0.00000000
