10
Lattice="16.290000149 0.0 0.0 0.0 16.290000149 0.0 0.0 0.0 29.1751946751" Properties=species:S:1:pos:R:3:initial_magmoms:R:1 pbc="T T T"
Si       2.27089933      -0.46476999       0.09371073       0.00000000
Si      -0.28127943       0.73793701       2.20719100       0.00000000
Si      -0.57308221       1.73350199      -1.52163228       0.00000000
Si      -1.52109505      -1.85205899      -0.42321537       0.00000000
H       -1.31782843       1.86080835       2.22198283       0.00000000
Si       2.54635508      -1.30816846      -2.04906145       0.00000000
Si      -1.11922075      -1.18804600       3.23322425       0.00000000
Si      -2.67250484      -1.97574896       1.63506544       0.00000000
Si      -2.56712483       2.61772157      -0.54537191       0.00000000
Si      -3.04878756      -0.85788028      -1.93011418       0.00000000
