10
Lattice="16.290000149 0.0 0.0 0.0 16.290000149 0.0 0.0 0.0 29.1751946751" Properties=species:S:1:pos:R:3:initial_magmoms:R:1 pbc="T T T"
Si      -1.35641944      -1.34387614       1.37464765       0.00000000
Si       1.33433020       1.35193969       1.39343647       0.00000000
Si      -1.37657017       1.34881201      -1.35848459       0.00000000
Si       1.36635634      -1.37415925      -1.34573503       0.00000000
Si       2.71674848      -2.69390990       0.06053853       0.00000000
Si       2.69739596       2.71337645       0.06287254       0.00000000
Si      -2.71639010      -2.69907383       0.02176470       0.00000000
Si      -0.02575449       2.74561437      -2.68209023       0.00000000
Si       2.73087191      -0.02335986      -2.69882221       0.00000000
Si      -0.00803097      -2.70454727       2.74001758       0.00000000
