10
Lattice="16.290000149 0.0 0.0 0.0 16.290000149 0.0 0.0 0.0 29.1751946751" Properties=species:S:1:pos:R:3:initial_magmoms:R:1 pbc="T T T"
Si      -0.72306424      -0.07784991      -1.32315343       0.00000000
H       -2.11336688       0.75627955       0.30339285       0.00000000
H        1.14305302       1.63225801      -1.12496633       0.00000000
H        1.79435981       1.20997234      -1.08202044       0.00000000
Si      -1.51221700       0.84413152       1.70348127       0.00000000
Si       0.25739829      -2.68165982       1.44137132       0.00000000
Si       2.24705891      -2.08078688       0.27027900       0.00000000
Si       0.88518232      -0.86591125      -2.84869518       0.00000000
Si       0.38092536       2.35061444       2.02694665       0.00000000
Si      -1.03703770      -1.18368028       2.76499155       0.00000000
