10
Lattice="16.290000149 0.0 0.0 0.0 16.290000149 0.0 0.0 0.0 29.1751946751" Properties=species:S:1:pos:R:3:initial_magmoms:R:1 pbc="T T T"
Si       1.36031275       1.36283770      -1.34284669       0.00000000
Si      -1.36474363      -1.35539317      -1.34713544       0.00000000
Si       1.35084826      -1.37665162       1.34176720       0.00000000
Si      -1.37487601       1.36441783       1.33187681       0.00000000
Si       2.73030176      -0.01682757      -2.66229486       0.00000000
Si      -0.02238246       2.70109379      -2.69371655       0.00000000
Si       0.00575037      -2.71959923      -2.68207565       0.00000000
Si       2.72820035      -0.03652218       2.67387742       0.00000000
Si      -0.02599884       2.72606636       2.67965411       0.00000000
Si      -2.71318097      -2.70298343       0.03092571       0.00000000
