10
Lattice="16.290000149 0.0 0.0 0.0 16.290000149 0.0 0.0 0.0 29.1751946751" Properties=species:S:1:pos:R:3:initial_magmoms:R:1 pbc="T T T"
Si       1.29323053       1.43648479       1.31343809       0.00000000
Si      -1.35490447       1.36655182      -1.33695330       0.00000000
Si      -1.30839652      -1.34644670       1.42281589       0.00000000
Si       1.42527727      -1.36235878      -1.29823781       0.00000000
Si       2.53495208       0.04735503       2.68505152       0.00000000
Si      -2.65193057      -2.69335604       0.03468931       0.00000000
Si       0.06367761      -2.70515000      -2.67551123       0.00000000
Si      -2.71057457      -0.00154755      -2.67405247       0.00000000
Si       0.02032992       2.70278795      -2.69861798       0.00000000
Si       2.76076407       0.00131949      -2.66719630       0.00000000
