10
Lattice="16.290000149 0.0 0.0 0.0 16.290000149 0.0 0.0 0.0 29.1751946751" Properties=species:S:1:pos:R:3:initial_magmoms:R:1 pbc="T T T"
H       -0.65130679       0.42228567      -0.04294589       0.00000000
Si       1.98035903       0.62141464       1.08099931       0.00000000
H       -1.79435981      -1.20997234       1.08202044       0.00000000
Si       0.75034999      -0.55164457      -2.50016831       0.00000000
Si       0.20206116       2.17047962       1.71360506       0.00000000
Si      -2.51742404      -1.28782225      -0.24113298       0.00000000
Si      -0.90917749      -2.07588359      -1.76667474       0.00000000
Si       2.61276941       0.28913121      -1.24843576       0.00000000
Si       1.21942054      -1.24954075       2.36199459       0.00000000
Si      -0.73653607       1.24833529      -2.61619806       0.00000000
