10
Lattice="16.290000149 0.0 0.0 0.0 16.290000149 0.0 0.0 0.0 29.1751946751" Properties=species:S:1:pos:R:3:initial_magmoms:R:1 pbc="T T T"
H        1.22346046      -1.96411790       0.22441560       0.00000000
H       -1.98035903      -0.62141464      -1.08099931       0.00000000
Si       1.87652657       0.70348366       1.27714415       0.00000000
Si      -0.76093849      -1.87095539       1.28099527       0.00000000
Si       0.63241039      -0.33228342      -2.32943507       0.00000000
Si      -1.77829787       1.54906498       0.63260575       0.00000000
H       -2.63166581      -0.19912896      -1.12394520       0.00000000
H        2.32772699       1.98215093       0.60404323       0.00000000
H        2.84434806       0.44220834      -1.21158748       0.00000000
H       -0.43256466       2.16479441      -2.21305522       0.00000000
