10
Lattice="16.290000149 0.0 0.0 0.0 16.290000149 0.0 0.0 0.0 29.1751946751" Properties=species:S:1:pos:R:3:initial_magmoms:R:1 pbc="T T T"
Si       0.08547363      -0.69004441      -2.23043196       0.00000000
Si      -0.98914510      -1.78647545       1.15400440       0.00000000
Si       1.83930392       0.88036048       1.18693736       0.00000000
Si      -1.63326799       1.73514566      -0.08519332       0.00000000
H        2.53283438      -0.94011220      -0.73073943       0.00000000
Si      -2.30409020      -0.46252197       2.55375731       0.00000000
Si       0.55311067       2.32873697       2.51654434       0.00000000
Si      -2.11859597      -0.31244220      -3.03613414       0.00000000
Si      -2.06817842       1.97956082      -2.37099805       0.00000000
Si       2.02536830       0.33658398      -3.13177043       0.00000000
