10
Lattice="16.290000149 0.0 0.0 0.0 16.290000149 0.0 0.0 0.0 29.1751946751" Properties=species:S:1:pos:R:3:initial_magmoms:R:1 pbc="T T T"
Si      -1.32930311       1.35900955      -1.36504901       0.00000000
Si       1.31051422       1.42964299       1.32283250       0.00000000
Si      -1.34192134      -1.36879984       1.36227737       0.00000000
Si       1.37798740      -1.34591239      -1.35702583       0.00000000
Si       2.66536982       0.07226244       2.62667195       0.00000000
Si      -2.64945449       2.69495246       0.04236238       0.00000000
Si       2.68260464       2.68310963      -0.10894018       0.00000000
Si      -2.67159260      -0.00216657      -2.71886557       0.00000000
Si      -2.61413940      -0.00900837       2.78529749       0.00000000
Si       0.02231730      -2.71401176      -2.69412500       0.00000000
