10
Lattice="16.290000149 0.0 0.0 0.0 16.290000149 0.0 0.0 0.0 29.1751946751" Properties=species:S:1:pos:R:3:initial_magmoms:R:1 pbc="T T T"
Si      -1.31110066      -1.36135531      -1.34486269       0.00000000
Si       1.31717683      -1.39088908       1.34150463       0.00000000
Si      -1.41576391       1.33020883       1.30614429       0.00000000
Si       1.30864087       1.28906029      -1.47016432       0.00000000
Si      -0.04549797       2.65813706       2.67046392       0.00000000
Si       2.69464295      -0.02735091       2.64779479       0.00000000
Si       2.67165776       2.69434973      -0.14812246       0.00000000
Si       2.64460007      -2.74905156      -0.02503232       0.00000000
Si      -2.76615606       2.64995948      -0.10012927       0.00000000
Si      -2.77004937      -0.04463460       2.65068314       0.00000000
