10
Lattice="16.290000149 0.0 0.0 0.0 16.290000149 0.0 0.0 0.0 29.1751946751" Properties=species:S:1:pos:R:3:initial_magmoms:R:1 pbc="T T T"
Si       1.77310136       1.01302624       1.14273403       0.00000000
Si       1.34117037      -1.30137553      -1.42374950       0.00000000
Si      -1.23199642       1.49146354      -1.35973912       0.00000000
Si      -1.29850849      -1.29785689       1.49899233       0.00000000
H       -3.15266889      -0.79837291      -1.58094545       0.00000000
Si      -2.29434878       0.46913571       2.76858010       0.00000000
Si      -2.50668893       0.02816541      -2.65803529       0.00000000
Si       3.42291999      -0.64365049       1.24365102       0.00000000
Si       2.75939571      -2.52457535      -0.04805155       0.00000000
Si       2.69692355       2.74318716      -0.13178435       0.00000000
