10
Lattice="16.290000149 0.0 0.0 0.0 16.290000149 0.0 0.0 0.0 29.1751946751" Properties=species:S:1:pos:R:3:initial_magmoms:R:1 pbc="T T T"
Si       1.37306782       1.38393325       1.30949944       0.00000000
Si       1.37080351      -1.33976292      -1.36554499       0.00000000
Si      -1.32392089       1.36427122      -1.39250287       0.00000000
Si      -1.36671472      -1.35904865       1.37698166       0.00000000
Si      -2.67320531      -2.67296096      -0.06961201       0.00000000
Si       2.67708233       0.00312768       2.68420544       0.00000000
Si      -2.68408703       2.71585253      -0.03944486       0.00000000
Si       2.70283682      -2.70601337       0.00647689       0.00000000
Si      -2.69019578       0.03528414       2.74170974       0.00000000
Si       0.04947273       2.75473677       2.68303843       0.00000000
