10
Lattice="16.290000149 0.0 0.0 0.0 16.290000149 0.0 0.0 0.0 29.1751946751" Properties=species:S:1:pos:R:3:initial_magmoms:R:1 pbc="T T T"
Si      -1.37746612      -1.36353817      -1.30629017       0.00000000
Si      -1.38368890       1.31476591       1.35935985       0.00000000
Si       1.32970384      -1.36651924       1.37502693       0.00000000
Si       1.32493087       1.38645820      -1.38191227       0.00000000
Si      -2.69464295       0.02735091      -2.64779479       0.00000000
Si      -0.01352070       2.67703346       2.68560584       0.00000000
Si       2.68859936      -0.00091224       2.70576590       0.00000000
Si      -0.05004288      -2.72170064      -2.67282711       0.00000000
Si       2.75033847       0.02611287      -2.65170427       0.00000000
Si       2.69459408      -2.71386515       0.02474057       0.00000000
