10
Lattice="16.290000149 0.0 0.0 0.0 16.290000149 0.0 0.0 0.0 29.1751946751" Properties=species:S:1:pos:R:3:initial_magmoms:R:1 pbc="T T T"
Si       0.45875898      -0.41798511       2.21296769       0.00000000
Si       1.83101231       1.29275812      -0.63143874       0.00000000
Si      -1.64981864       1.65667673      -0.10091700       0.00000000
Si      -0.66352429      -1.88092487      -1.29170257       0.00000000
H        1.81571600       0.15532515       2.49161998       0.00000000
Si       0.79946434       2.11818872      -2.58588503       0.00000000
Si      -2.08174962      -0.65772505      -2.66740052       0.00000000
Si      -3.42291999       0.64365049      -1.24365102       0.00000000
Si      -0.72599644       3.38683764      -1.37543538       0.00000000
Si       3.65278818      -0.16465932      -0.79770817       0.00000000
