10
Lattice="16.290000149 0.0 0.0 0.0 16.290000149 0.0 0.0 0.0 29.1751946751" Properties=species:S:1:pos:R:3:initial_magmoms:R:1 pbc="T T T"
Si       1.32066289       1.33816845       1.33964617       0.00000000
Si      -1.41843547       1.34637210      -1.25003164       0.00000000
Si       1.23026968      -1.20313184      -1.59959132       0.00000000
Si      -1.46318410      -1.43275569       1.21687695       0.00000000
Si      -2.46119096      -0.50536598      -2.20177609       0.00000000
Si      -0.71752564      -2.04871317      -2.65513294       0.00000000
Si       2.62009666       2.62793410      -0.13153345       0.00000000
Si       2.63752223      -0.09635665       2.61571083       0.00000000
Si       2.53374662      -2.73176917      -0.28200160       0.00000000
Si      -0.12189807       2.67102115       2.62204185       0.00000000
