10
Lattice="16.290000149 0.0 0.0 0.0 16.290000149 0.0 0.0 0.0 29.1751946751" Properties=species:S:1:pos:R:3:initial_magmoms:R:1 pbc="T T T"
Si       1.29697723       1.47950668      -1.28678888       0.00000000
Si       1.37357281      -1.36008469       1.35820743       0.00000000
Si      -1.39036780       1.36418977       1.34862046       0.00000000
Si      -1.15160527      -1.50842143      -1.42114999       0.00000000
Si       2.60094287       0.04877226      -2.58410243       0.00000000
Si      -2.70878756      -0.26362107      -2.61534906       0.00000000
Si      -2.66910512      -2.68931612      -0.00303422       0.00000000
Si       0.01097946      -2.67354740       2.75487067       0.00000000
Si       2.71388144       0.01158219       2.72131920       0.00000000
Si      -0.02904507       2.73455346       2.70856964       0.00000000
