10
Lattice="16.290000149 0.0 0.0 0.0 16.290000149 0.0 0.0 0.0 29.1751946751" Properties=species:S:1:pos:R:3:initial_magmoms:R:1 pbc="T T T"
Si      -1.38564370      -1.27658215      -1.37732506       0.00000000
Si       1.20379843      -1.39624849       1.44127796       0.00000000
Si      -1.41828886       1.36990756       1.29901679       0.00000000
Si       1.87462064       0.80141914      -1.19767267       0.00000000
Si       2.51874353      -2.72020196       0.04152505       0.00000000
Si       2.63233370       0.00620649       2.68529659       0.00000000
Si       2.68718213       2.65843028      -0.01399826       0.00000000
Si       3.50788863      -0.93372652      -1.11247935       0.00000000
Si      -2.72165666      -2.68298746      -0.02455384       0.00000000
Si      -0.09695808       2.72119565       2.68234989       0.00000000
