10
Lattice="16.290000149 0.0 0.0 0.0 16.290000149 0.0 0.0 0.0 29.1751946751" Properties=species:S:1:pos:R:3:initial_magmoms:R:1 pbc="T T T"
Si      -1.36860436      -1.34412049       1.34246741       0.00000000
Si      -1.38214135       1.34623819      -1.33581546       0.00000000
Si       1.35057133      -1.36493911      -1.35507109       0.00000000
Si       1.36664956       1.36189288       1.35218275       0.00000000
Si       0.00521280       2.70524774      -2.64038429       0.00000000
Si      -0.00192222      -2.70161507       2.67052227       0.00000000
Si       2.71363709      -0.00350235      -2.68563502       0.00000000
Si      -2.70021413       2.71523351       0.05394493       0.00000000
Si      -2.70901073      -2.70694190      -0.02234820       0.00000000
Si      -2.68690520       0.01832625       2.73351151       0.00000000
