10
Lattice="16.290000149 0.0 0.0 0.0 16.290000149 0.0 0.0 0.0 29.1751946751" Properties=species:S:1:pos:R:3:initial_magmoms:R:1 pbc="T T T"
Si      -1.34830702      -1.02004723       1.63305235       0.00000000
Si       1.23209416      -1.42978472      -1.41633900       0.00000000
Si      -1.35250984       1.31036761      -1.42637527       0.00000000
Si       1.42687369       1.27146709       1.40408542       0.00000000
Si       0.08563653      -2.64715418       2.56056096       0.00000000
Si      -0.06357987       2.53628786       2.68828996       0.00000000
Si       2.72244836       2.62920602      -0.04207063       0.00000000
Si      -1.45635859       0.71278525       3.43742144       0.00000000
Si      -2.74457181       2.66377340      -0.11305388       0.00000000
Si       2.61514775      -0.09265752      -2.79778447       0.00000000
