10
Lattice="16.290000149 0.0 0.0 0.0 16.290000149 0.0 0.0 0.0 29.1751946751" Properties=species:S:1:pos:R:3:initial_magmoms:R:1 pbc="T T T"
Si       1.39975084       1.41674620       1.25780099       0.00000000
Si      -1.26099262       1.39169707      -1.43086825       0.00000000
Si       1.42987105      -1.28207188      -1.41196272       0.00000000
Si      -1.29738448      -1.59006691       1.27588961       0.00000000
Si      -2.52749126      -2.72751617      -0.34963553       0.00000000
Si       0.28149120      -2.67608864       2.59738006       0.00000000
Si      -2.58447368       2.78602986      -0.06614017       0.00000000
Si       2.86863431       0.12330944       2.52922680       0.00000000
Si      -2.56748321       0.07778475      -2.87746193       0.00000000
Si       2.86867805      -2.63168210      -0.12542416       0.00000000
