10
Lattice="16.290000149 0.0 0.0 0.0 16.290000149 0.0 0.0 0.0 29.1751946751" Properties=species:S:1:pos:R:3:initial_magmoms:R:1 pbc="T T T"
Si       1.31991355      -1.44063874       1.27606466       0.00000000
Si      -1.34887717      -1.36164853      -1.34777729       0.00000000
Si       1.38903202       1.35982405      -1.31291294       0.00000000
Si      -1.29090106       1.36775728       1.41207942       0.00000000
Si       2.74626597      -0.05136237       2.45538438       0.00000000
Si       0.01969461       2.70185942      -2.66611682       0.00000000
Si      -2.66447387       2.72013680       0.06730717       0.00000000
Si      -2.71555931      -0.00415395      -2.67583215       0.00000000
Si      -0.06379164      -2.77661424       2.61628558       0.00000000
Si       2.74167218      -0.00982287      -2.66331600       0.00000000
