10
Lattice="16.290000149 0.0 0.0 0.0 16.290000149 0.0 0.0 0.0 29.1751946751" Properties=species:S:1:pos:R:3:initial_magmoms:R:1 pbc="T T T"
Si      -0.45120042      -1.27866727       0.67310092       0.00000000
H        0.51662106      -1.53994258      -1.81563072       0.00000000
Si       1.55015641      -0.43152210      -2.02531284       0.00000000
Si       2.72469475      -0.57723616      -0.00767308       0.00000000
Si      -1.26333838      -0.28805607       2.61392239       0.00000000
Si       1.56416581      -2.63191016       0.57868999       0.00000000
Si      -2.32772699      -1.98215093      -0.60404323       0.00000000
Si      -2.76617235       1.02467359       1.32020673       0.00000000
Si      -1.85067434       2.86278834       0.15322812       0.00000000
Si       0.29657574       1.21948570      -3.17464046       0.00000000
