10
Lattice="16.290000149 0.0 0.0 0.0 16.290000149 0.0 0.0 0.0 29.1751946751" Properties=species:S:1:pos:R:3:initial_magmoms:R:1 pbc="T T T"
Si      -1.74676043      -0.32237096       1.49204863       0.00000000
Si       0.11751606      -2.30533639      -0.23366413       0.00000000
Si      -0.98231959       0.86097701      -1.98648066       0.00000000
Si       1.83430289       1.18538259       1.00563979       0.00000000
H       -0.42064038       2.66562232       1.50048026       0.00000000
Si      -2.50295852       2.17853502      -0.78980170       0.00000000
Si       1.71756875      -2.23116802      -2.02566294       0.00000000
Si      -1.06352524       3.50819000       0.42096888       0.00000000
Si       0.40523004      -3.19089337       2.00798277       0.00000000
Si      -3.66414231       0.73810968       0.71283753       0.00000000
