10
Lattice="10.86 0.0 0.0 0.0 10.86 0.0 0.0 0.0 10.86" Properties=species:S:1:pos:R:3:initial_magmoms:R:1 pbc="T T T"
Si       1.29476178      -1.29476178      -1.47206214       0.00000000
Si      -1.34628162       1.34628162      -1.54025208       0.00000000
Si       0.00094482       2.71405518       2.56964976       0.00000000
Si      -2.71405518      -0.00094482       2.56964976       0.00000000
Si       2.71594482      -0.00094482       2.56964976       0.00000000
Si       0.00094482      -2.71594482       2.56964976       0.00000000
Si      -2.71405518       2.71405518      -0.14535024       0.00000000
Si      -2.71405518      -2.71594482      -0.14535024       0.00000000
Si       2.71594482       2.71405518      -0.14535024       0.00000000
Si       2.71594482      -2.71594482      -0.14535024       0.00000000
