10
Lattice="16.28999089631971 0.0 0.0 0.0 16.28999089631971 0.0 0.0 0.0 34.450931932916035" Properties=species:S:1:pos:R:3:initial_magmoms:R:1 pbc="T T T"
Si       1.07880525       1.66283433       1.22460075       0.00000000
Si      -1.63634190      -1.12905664       1.27266327       0.00000000
Si      -1.77097387       0.88363476      -1.28689568       0.00000000
Si       2.01794004      -1.73524501      -0.29302019       0.00000000
Si      -0.35515458       1.36923966      -3.15689331       0.00000000
Si       2.41272819       0.23812722       2.62780177       0.00000000
Si      -0.31610745      -2.49608116       2.63544299       0.00000000
Si      -2.85883310      -2.42878801      -0.27396882       0.00000000
Si      -2.91509827       2.59421508      -0.04580395       0.00000000
Si       2.10504267       1.46714256      -2.94126481       0.00000000
