10
Lattice="16.28999089631971 0.0 0.0 0.0 16.28999089631971 0.0 0.0 0.0 34.450931932916035" Properties=species:S:1:pos:R:3:initial_magmoms:R:1 pbc="T T T"
Si       0.21825342      -1.19596293      -2.02140956       0.00000000
Si      -1.60276658      -1.04979276       1.38065632       0.00000000
Si      -0.62297847       1.93690448      -1.20940064       0.00000000
Si      -0.58704273      -3.18813219      -1.12902657       0.00000000
Si       1.44950049       2.14351055      -2.45063396       0.00000000
Si      -2.67081066      -2.40168357      -0.31722436       0.00000000
Si       1.94662242       0.77163028       2.96381533       0.00000000
Si       1.00554912      -3.44157201       0.56761387       0.00000000
Si      -0.18948528      -2.49927696       2.64755560       0.00000000
Si      -3.06436387       1.69635005      -1.25074178       0.00000000
