10
Lattice="16.28999089631971 0.0 0.0 0.0 16.28999089631971 0.0 0.0 0.0 34.450931932916035" Properties=species:S:1:pos:R:3:initial_magmoms:R:1 pbc="T T T"
Si      -1.34811153      -1.33473746       1.35923127       0.00000000
Si      -1.39225743       1.30802412      -1.34545434       0.00000000
Si       1.36671471       1.38073616       1.34968836       0.00000000
Si       1.31101920      -1.32742325      -1.45799526       0.00000000
Si       2.23037793       0.63655195      -2.47780198       0.00000000
Si       0.34205742       2.26606020      -2.66342095       0.00000000
Si      -2.72543103      -2.66264939      -0.01563729       0.00000000
Si       2.72246625      -2.68190417      -0.01948546       0.00000000
Si       0.00830790      -2.69250896       2.71391158       0.00000000
Si      -2.70475902       0.02122366       2.71398048       0.00000000
