10
Lattice="16.28999089631971 0.0 0.0 0.0 16.28999089631971 0.0 0.0 0.0 34.450931932916035" Properties=species:S:1:pos:R:3:initial_magmoms:R:1 pbc="T T T"
Si       1.33703433       1.34882992      -1.38489379       0.00000000
Si      -1.37643984      -1.36643708      -1.38324014       0.00000000
Si      -1.30898295       1.49058550       1.37159572       0.00000000
Si       1.49625279      -1.23653806       1.48821219       0.00000000
Si      -0.23752449      -2.26210012       2.76568791       0.00000000
Si       2.70427032       2.69998768      -0.00282498       0.00000000
Si       2.69177589      -2.72600674      -0.00520209       0.00000000
Si       2.69737965      -0.00777522      -2.74277803       0.00000000
Si      -0.01629000       2.70739963      -2.74463838       0.00000000
Si      -2.73522132       2.72346157      -0.01564073       0.00000000
