10
Lattice="16.28999089631971 0.0 0.0 0.0 16.28999089631971 0.0 0.0 0.0 34.450931932916035" Properties=species:S:1:pos:R:3:initial_magmoms:R:1 pbc="T T T"
Si       1.08230760       1.88656119      -1.02240088       0.00000000
Si       1.45095030      -1.01944449       1.64913258       0.00000000
Si      -0.54314118      -2.00611350      -1.28874118       0.00000000
Si      -2.07505278       1.11760803       0.68684861       0.00000000
Si      -3.47193657      -0.75471570       0.32793860       0.00000000
Si      -0.66903030      -3.57973890       0.48706755       0.00000000
Si      -2.55349008       2.53542447      -1.21208782       0.00000000
Si      -2.85496911      -1.90373085      -1.64079545       0.00000000
Si       1.20071961       0.31706856       3.61748768       0.00000000
Si       1.82030976       1.29883428      -3.19753058       0.00000000
