10
Lattice="16.28999089631971 0.0 0.0 0.0 16.28999089631971 0.0 0.0 0.0 34.450931932916035" Properties=species:S:1:pos:R:3:initial_magmoms:R:1 pbc="T T T"
Si      -1.32085836      -0.16095823       1.89731723       0.00000000
Si      -1.60309890      -0.30164845      -1.72788746       0.00000000
Si       0.51688170       2.25864597      -0.56582242       0.00000000
Si       1.82483838      -1.61160458       0.34595645       0.00000000
Si      -2.02921272      -2.35325570       1.49799626       0.00000000
Si       2.69154783       1.83877122      -1.48738537       0.00000000
Si       3.46530654      -0.36104341      -0.83667580       0.00000000
Si      -3.48228072       0.74746502      -0.61594856       0.00000000
Si       0.20325033      -0.23458903       3.69334867       0.00000000
Si      -3.05230617       1.44072507       1.56086925       0.00000000
