10
Lattice="16.28999089631971 0.0 0.0 0.0 16.28999089631971 0.0 0.0 0.0 34.450931932916035" Properties=species:S:1:pos:R:3:initial_magmoms:R:1 pbc="T T T"
Si      -1.35180936      -1.34004798      -1.37081713       0.00000000
Si       1.35524655      -1.35544203       1.35647175       0.00000000
Si       1.35215145       1.34410419      -1.37509594       0.00000000
Si      -1.35886293       1.35685926       1.35691961       0.00000000
Si       2.71366965      -2.71276881      -0.00878499       0.00000000
Si      -0.00146610      -2.71406875       2.71328801       0.00000000
Si       2.71401174       0.00125433       2.71352917       0.00000000
Si      -2.71539639       2.71407690      -0.00551215       0.00000000
Si      -0.00131949       2.71621089       2.71328801       0.00000000
Si      -2.71656927       0.00089595       2.71356362       0.00000000
