10
Lattice="16.28999089631971 0.0 0.0 0.0 16.28999089631971 0.0 0.0 0.0 34.450931932916035" Properties=species:S:1:pos:R:3:initial_magmoms:R:1 pbc="T T T"
Si      -1.35215145      -1.34410419       1.37509594       0.00000000
Si      -1.31051421       1.48424706      -1.29327837       0.00000000
Si       1.36516716       1.36967949       1.37185755       0.00000000
Si       1.33569855      -1.33302699      -1.51111518       0.00000000
Si       2.20063239       0.55532610      -2.82831427       0.00000000
Si       0.34889922       2.43827091      -2.71944926       0.00000000
Si      -2.70396081      -2.68415217       0.00427881       0.00000000
Si       2.72179836      -2.67747327       0.00064768       0.00000000
Si       0.00309510      -2.69954622       2.73156769       0.00000000
Si      -2.71101438       0.01275507       2.73201555       0.00000000
