10
Lattice="16.28999089631971 0.0 0.0 0.0 16.28999089631971 0.0 0.0 0.0 34.450931932916035" Properties=species:S:1:pos:R:3:initial_magmoms:R:1 pbc="T T T"
Si      -1.39688379      -1.87232373      -0.35891001       0.00000000
Si      -0.47843730       1.41781644      -1.89893643       0.00000000
Si      -0.02638980       0.81345744       2.28209991       0.00000000
Si       2.07505278      -1.11760803      -0.68684861       0.00000000
Si       3.15736038       0.76895316      -1.70924949       0.00000000
Si      -2.09520351       0.09127287      -3.03168370       0.00000000
Si      -3.32357702      -0.96461235      -1.33597344       0.00000000
Si       1.59951510       2.40806925      -2.37108672       0.00000000
Si      -2.84726394       2.17737027       1.06935752       0.00000000
Si      -0.47315934      -3.64823347       0.91215783       0.00000000
