10
Lattice="16.28999089631971 0.0 0.0 0.0 16.28999089631971 0.0 0.0 0.0 34.450931932916035" Properties=species:S:1:pos:R:3:initial_magmoms:R:1 pbc="T T T"
Si       1.40442606      -1.26574929      -1.33410275       0.00000000
Si      -1.38197844       1.26084600      -1.37541978       0.00000000
Si       1.36036161       1.33722981       1.33602856       0.00000000
Si      -1.35260757      -1.38002364       1.32875941       0.00000000
Si      -0.43280901      -2.13825798      -2.55634981       0.00000000
Si      -2.39177925      -0.65308239      -2.50371564       0.00000000
Si       0.08964387       2.54531250      -2.65413539       0.00000000
Si       0.00648342       2.69518050       2.69063996       0.00000000
Si      -2.70953199      -0.01959687       2.68977868       0.00000000
Si       2.71884987      -0.01948284       2.69001984       0.00000000
