10
Lattice="16.28999089631971 0.0 0.0 0.0 16.28999089631971 0.0 0.0 0.0 34.450931932916035" Properties=species:S:1:pos:R:3:initial_magmoms:R:1 pbc="T T T"
Si      -1.35622395      -1.35658233       1.35740193       0.00000000
Si      -1.35720135       1.35803214      -1.35705742       0.00000000
Si       1.35742941      -1.35736425      -1.35757418       0.00000000
Si       1.36008468       1.35845568       1.35774644       0.00000000
Si      -2.71357191       0.00092853      -2.71535507       0.00000000
Si       2.71474479      -2.71476108      -0.00051676       0.00000000
Si      -2.71474479      -2.71492398       0.00031006       0.00000000
Si       2.71497285      -0.00270414       2.71473495       0.00000000
Si       2.71480995       0.00104256      -2.71511391       0.00000000
Si       2.71463076       2.71542897      -0.00020671       0.00000000
