10
Lattice="16.28999089631971 0.0 0.0 0.0 16.28999089631971 0.0 0.0 0.0 34.450931932916035" Properties=species:S:1:pos:R:3:initial_magmoms:R:1 pbc="T T T"
Si       1.39590639       1.71447363       0.85042173       0.00000000
Si      -1.64216232      -0.04504185       1.73718921       0.00000000
Si       0.80275491      -2.19273174      -0.64547302       0.00000000
Si       0.26239932      -2.94303285       1.64024424       0.00000000
Si       1.12075200       3.12111513      -1.02639719       0.00000000
Si      -2.04498144      -2.37882870       1.65495479       0.00000000
Si       1.73301165       0.29286162      -3.24438388       0.00000000
Si      -0.12777876       3.61181880       0.90192590       0.00000000
Si       1.81814319      -1.52964729       2.88667965       0.00000000
Si       2.39700834       0.82963341       2.82955997       0.00000000
