10
Lattice="16.28999089631971 0.0 0.0 0.0 16.28999089631971 0.0 0.0 0.0 34.450931932916035" Properties=species:S:1:pos:R:3:initial_magmoms:R:1 pbc="T T T"
Si      -0.20432547       2.02518909       1.16606134       0.00000000
Si      -2.23321239      -0.31161141      -0.73766377       0.00000000
Si       1.11736368       0.27357426      -2.14188454       0.00000000
Si       0.61395381      -1.68686208       1.65006276       0.00000000
Si       3.42189369       0.16083117      -1.46351086       0.00000000
Si      -0.94495032      -3.36549771       1.30028225       0.00000000
Si       1.19671227       1.83402594       3.03926291       0.00000000
Si      -2.48901426       2.04863040       1.91850457       0.00000000
Si       0.68095458      -1.77088590      -3.35290437       0.00000000
Si      -3.51339462       1.59863544      -0.14793238       0.00000000
