10
Lattice="16.28999089631971 0.0 0.0 0.0 16.28999089631971 0.0 0.0 0.0 34.450931932916035" Properties=species:S:1:pos:R:3:initial_magmoms:R:1 pbc="T T T"
Si      -1.35837423      -1.35643572      -1.35726412       0.00000000
Si      -1.35707103       1.35759054       1.35743638       0.00000000
Si       1.35755973      -1.35777150       1.35736748       0.00000000
Si       1.35870003       1.35653127      -1.35791869       0.00000000
Si      -2.71514227      -0.00068418      -2.71142766       0.00000000
Si       2.71534752       0.00057015      -2.71266790       0.00000000
Si      -0.00009774      -2.71409319       2.71432154       0.00000000
Si      -2.71444668       0.00029322       2.71463160       0.00000000
Si      -2.71452487      -2.71507059      -0.00010335       0.00000000
Si      -2.71497774       2.71468682       0.00041341       0.00000000
