10
Lattice="16.28999089631971 0.0 0.0 0.0 16.28999089631971 0.0 0.0 0.0 34.450931932916035" Properties=species:S:1:pos:R:3:initial_magmoms:R:1 pbc="T T T"
Si      -1.35842310       1.35732678       1.36525674       0.00000000
Si       1.35769005      -1.35935059       1.36470553       0.00000000
Si      -1.36671471      -1.38073616      -1.34968836       0.00000000
Si       1.36028016       1.37939973      -1.36566327       0.00000000
Si      -2.71366965       2.71276881       0.00878499       0.00000000
Si       2.71192662       2.71623858       0.00892280       0.00000000
Si      -2.71482624      -2.71547362       0.00954291       0.00000000
Si       2.71484253      -2.71633699       0.00506429       0.00000000
Si       0.00034209       2.71402314       2.72231416       0.00000000
Si      -2.71513575      -0.00129994       2.72207301       0.00000000
