10
Lattice="16.28999089631971 0.0 0.0 0.0 16.28999089631971 0.0 0.0 0.0 34.450931932916035" Properties=species:S:1:pos:R:3:initial_magmoms:R:1 pbc="T T T"
Si       1.35164646       1.33683885       1.37458606       0.00000000
Si       1.41745806      -1.29630770      -1.38178287       0.00000000
Si      -1.36028016      -1.37939973       1.36566327       0.00000000
Si      -1.38609981       1.34444628      -1.51176286       0.00000000
Si      -0.49661694      -2.12358395      -2.46182708       0.00000000
Si      -2.38493745      -0.49407570      -2.64744604       0.00000000
Si       2.70787041       2.68413588      -0.00721403       0.00000000
Si      -2.72179836       2.67747327      -0.00064768       0.00000000
Si      -0.00128691       2.69158041       2.73057550       0.00000000
Si       2.71287144      -0.02204037       2.72974868       0.00000000
