10
Lattice="16.28999089631971 0.0 0.0 0.0 16.28999089631971 0.0 0.0 0.0 34.450931932916035" Properties=species:S:1:pos:R:3:initial_magmoms:R:1 pbc="T T T"
Si       1.32890562      -1.27548908      -1.53954411       0.00000000
Si       1.55636289       0.99590544       1.54860471       0.00000000
Si      -1.36586763       1.40844969      -1.51212115       0.00000000
Si      -0.87338835      -1.74382658       1.54195567       0.00000000
Si      -2.57388516      -2.52807605      -0.02108398       0.00000000
Si       1.56902022      -0.84590712       3.21182773       0.00000000
Si       0.00646713       2.45532654       2.75948674       0.00000000
Si       2.59227657      -2.69026811      -0.20088350       0.00000000
Si       2.66471820       2.65365729       0.05408799       0.00000000
Si       0.90719010      -3.51143072       1.28160984       0.00000000
