10
Lattice="16.28999089631971 0.0 0.0 0.0 16.28999089631971 0.0 0.0 0.0 34.450931932916035" Properties=species:S:1:pos:R:3:initial_magmoms:R:1 pbc="T T T"
Si      -0.50875299       2.13379452       0.93775489       0.00000000
Si       0.45036963      -1.52772507       1.80385180       0.00000000
Si      -1.68428826      -0.34121034      -1.92894321       0.00000000
Si       2.58633072       0.21256821      -0.49109831       0.00000000
Si      -1.85155398      -2.26334889      -0.29255748       0.00000000
Si       1.53567459       1.86043203      -1.92494690       0.00000000
Si      -0.02186118       0.68346324      -3.38794099       0.00000000
Si       0.28789317      -3.49303864       0.43752708       0.00000000
Si       1.03448016       3.42676440      -0.25028616       0.00000000
Si       2.58686829      -0.87939936       2.70567435       0.00000000
