10
Lattice="16.28999089631971 0.0 0.0 0.0 16.28999089631971 0.0 0.0 0.0 34.450931932916035" Properties=species:S:1:pos:R:3:initial_magmoms:R:1 pbc="T T T"
Si      -1.05065613       1.64786382      -1.43384859       0.00000000
Si       1.54989576      -1.45942110      -1.21088203       0.00000000
Si       1.03394259       0.80151687       2.10777810       0.00000000
Si      -2.58633072      -0.21256821       0.49109831       0.00000000
Si       0.00053757      -1.09196757       3.19677266       0.00000000
Si      -1.55185056       3.21419619       0.24081215       0.00000000
Si      -2.13596109      -1.74029328       2.29495011       0.00000000
Si       0.31473909       3.10692654       1.84570971       0.00000000
Si       1.56255309      -3.30123366       0.45234099       0.00000000
Si      -0.00646713      -2.45532654      -2.75948674       0.00000000
