10
Lattice="16.28999089631971 0.0 0.0 0.0 16.28999089631971 0.0 0.0 0.0 34.450931932916035" Properties=species:S:1:pos:R:3:initial_magmoms:R:1 pbc="T T T"
Si      -2.00972988       0.94812687       0.75864440       0.00000000
Si       1.77849333       1.57889196       0.11696098       0.00000000
Si       0.08289981      -1.86518871       1.51870128       0.00000000
Si      -0.61406784      -0.09726759      -2.38255888       0.00000000
Si       2.79575496       1.08843264      -1.96570237       0.00000000
Si      -3.56547375      -0.46525869      -0.48779102       0.00000000
Si      -1.43086473       3.30740757       0.70152472       0.00000000
Si      -1.15230573      -3.47750775       0.32221975       0.00000000
Si      -2.21294763       0.36165429       3.03199376       0.00000000
Si       3.17518164       1.05060726       1.95075066       0.00000000
