10
Lattice="16.28999089631971 0.0 0.0 0.0 16.28999089631971 0.0 0.0 0.0 34.450931932916035" Properties=species:S:1:pos:R:3:initial_magmoms:R:1 pbc="T T T"
Si       2.07660033      -1.03799880       0.30168698       0.00000000
Si      -1.14202674      -1.37479455      -1.52304210       0.00000000
Si      -0.88207092      -0.56452995       2.13606233       0.00000000
Si      -0.42176439       2.37415347      -0.15509818       0.00000000
Si      -3.18445065      -0.35471475      -1.03910959       0.00000000
Si      -3.07726245      -0.29497932       1.45090181       0.00000000
Si       0.76800834       3.29993046       1.70945620       0.00000000
Si      -0.05435973      -2.68946271       2.68693304       0.00000000
Si      -0.30178854      -0.90212391      -3.69600140       0.00000000
Si       3.73247883       0.04965192      -0.88652633       0.00000000
