10
Lattice="16.28999089631971 0.0 0.0 0.0 16.28999089631971 0.0 0.0 0.0 34.450931932916035" Properties=species:S:1:pos:R:3:initial_magmoms:R:1 pbc="T T T"
Si       1.65587850       1.08765072      -1.18821331       0.00000000
Si      -2.07660033       1.03799880      -0.30168698       0.00000000
Si       0.00390960      -2.30679432      -0.55448806       0.00000000
Si       0.06761979      -0.87446349       2.30855824       0.00000000
Si      -2.95867125       0.47346885       1.83437535       0.00000000
Si       3.45774798       0.88438410       0.23533445       0.00000000
Si      -2.13096006      -1.65146391       2.38524606       0.00000000
Si      -3.21862707      -0.33679575      -1.82472908       0.00000000
Si      -1.87473465      -3.20813631       0.57639886       0.00000000
Si       1.43622414       3.39869673      -0.75085848       0.00000000
