10
Lattice="16.28999089631971 0.0 0.0 0.0 16.28999089631971 0.0 0.0 0.0 34.450931932916035" Properties=species:S:1:pos:R:3:initial_magmoms:R:1 pbc="T T T"
Si      -1.76867046       0.83396655      -1.20021265       0.00000000
Si      -1.45194399      -1.17907020       1.37735382       0.00000000
Si       1.26684072       1.51573563       1.29765499       0.00000000
Si       1.42294779       0.10914300      -3.21442196       0.00000000
Si      -0.89932203       0.54082800      -3.36011503       0.00000000
Si      -0.09736533      -2.54273868       2.68979381       0.00000000
Si       2.60490132       0.14621904       2.68345828       0.00000000
Si      -3.50078616      -0.79014645      -1.07853189       0.00000000
Si      -2.48271003      -2.83696866      -0.04004241       0.00000000
Si       2.38537728       1.99814769      -2.16053291       0.00000000
