10
Lattice="16.28999089631971 0.0 0.0 0.0 16.28999089631971 0.0 0.0 0.0 34.450931932916035" Properties=species:S:1:pos:R:3:initial_magmoms:R:1 pbc="T T T"
Si       1.35058761       1.35896067      -1.37834811       0.00000000
Si      -1.36453185      -1.35907470      -1.38410141       0.00000000
Si      -1.44013374       1.33604064       1.38637518       0.00000000
Si       1.54888578      -1.27984014       1.44118664       0.00000000
Si       0.14276556       2.46208689       2.70839598       0.00000000
Si      -2.71104696      -2.69899236      -0.02080837       0.00000000
Si       2.71235016       2.71585251       0.00957736       0.00000000
Si       2.71682991      -2.72850984      -0.00306613       0.00000000
Si       2.70775638      -0.00003258      -2.74084877       0.00000000
Si      -0.00848709      -2.71423980      -2.74264022       0.00000000
