10
Lattice="16.28999089631971 0.0 0.0 0.0 16.28999089631971 0.0 0.0 0.0 34.450931932916035" Properties=species:S:1:pos:R:3:initial_magmoms:R:1 pbc="T T T"
Si       1.16794413      -1.44866970      -1.44425278       0.00000000
Si      -1.22735376      -1.46088720       1.39664156       0.00000000
Si      -1.54888578       1.27984014      -1.44118664       0.00000000
Si       1.82280213       0.77493159       1.48156316       0.00000000
Si      -1.72854819       0.10544517       3.07130230       0.00000000
Si       2.57000814       2.59107111       0.06218397       0.00000000
Si       2.52009558      -0.07775217      -2.82263533       0.00000000
Si       2.48155344      -2.91042027       0.12509140       0.00000000
Si      -2.78488953      -2.63785599      -0.06635253       0.00000000
Si      -0.19829817       2.63880081      -2.81953475       0.00000000
