10
Lattice="16.28999089631971 0.0 0.0 0.0 16.28999089631971 0.0 0.0 0.0 34.450931932916035" Properties=species:S:1:pos:R:3:initial_magmoms:R:1 pbc="T T T"
Si       0.17925516       1.62168579      -1.67886375       0.00000000
Si       0.85374261      -2.17344438      -0.52203526       0.00000000
Si      -2.35561545      -0.44492877       0.06252848       0.00000000
Si       1.17428094       1.00124856       1.87578539       0.00000000
Si       1.55541807      -1.09252143       2.90986514       0.00000000
Si      -0.30871179       3.67386741      -0.65029615       0.00000000
Si       2.25043092      -2.70172908       1.31175442       0.00000000
Si      -3.35671740       0.43991145      -1.91660977       0.00000000
Si      -0.92475072      -3.75233634      -0.63899624       0.00000000
Si      -3.43248219       0.37027170       1.96401428       0.00000000
