10
Lattice="16.28999089631971 0.0 0.0 0.0 16.28999089631971 0.0 0.0 0.0 34.450931932916035" Properties=species:S:1:pos:R:3:initial_magmoms:R:1 pbc="T T T"
Si      -1.01726163       0.49045932       2.08266335       0.00000000
Si       0.71920350      -2.30540967       0.26206839       0.00000000
Si       1.84037904       1.39134519      -0.81545401       0.00000000
Si      -1.86658965       0.10726965      -1.60489756       0.00000000
Si      -2.79575496      -1.08843264       1.96570237       0.00000000
Si      -0.31473909      -3.10692654      -1.84570971       0.00000000
Si      -3.40982280      -1.18570023      -0.41685651       0.00000000
Si       3.02265837      -1.87077618       0.94598867       0.00000000
Si       1.68476067       0.77675607      -3.19463670       0.00000000
Si       3.40394211       0.39270303       1.60848046       0.00000000
