10
Lattice="16.28999089631971 0.0 0.0 0.0 16.28999089631971 0.0 0.0 0.0 34.450931932916035" Properties=species:S:1:pos:R:3:initial_magmoms:R:1 pbc="T T T"
Si       1.34842593       1.34570061      -1.35334361       0.00000000
Si       1.35261246      -1.35620766       1.35492146       0.00000000
Si      -1.35946457       1.35897696       1.35502481       0.00000000
Si      -1.35663350      -1.36541151      -1.35512472       0.00000000
Si      -0.13480952       2.55065562      -2.68216847       0.00000000
Si       2.71041654      -2.71343344      -0.00533990       0.00000000
Si       2.71196409       0.00195480       2.71259899       0.00000000
Si      -0.00294849      -2.71306692       2.71287460       0.00000000
Si       2.71313697       2.71513575      -0.00647678       0.00000000
Si      -0.00281003       2.71684620       2.71235784       0.00000000
