10
Lattice="16.28999089631971 0.0 0.0 0.0 16.28999089631971 0.0 0.0 0.0 34.450931932916035" Properties=species:S:1:pos:R:3:initial_magmoms:R:1 pbc="T T T"
Si      -1.35632169      -1.35527913       1.35664401       0.00000000
Si      -1.35757602       1.35725022      -1.35719522       0.00000000
Si       1.35798327       1.35690813       1.35774644       0.00000000
Si       1.35777150      -1.35835794      -1.35705742       0.00000000
Si       0.00037467       2.71402485      -2.71459715       0.00000000
Si       0.00159642       2.71173285       2.71724987       0.00000000
Si      -2.71456560       2.71477367       0.00034451       0.00000000
Si      -2.71577106      -0.00019548       2.71401148       0.00000000
Si       2.71516833       2.71472035       0.00020671       0.00000000
Si      -2.71510317      -2.71484253       0.00013780       0.00000000
