10
Lattice="16.28999089631971 0.0 0.0 0.0 16.28999089631971 0.0 0.0 0.0 34.450931932916035" Properties=species:S:1:pos:R:3:initial_magmoms:R:1 pbc="T T T"
Si      -1.27386895       1.28016594      -1.45085013       0.00000000
Si      -1.37271667      -1.34203536       1.34599522       0.00000000
Si       1.34353399       1.37213928       1.34668424       0.00000000
Si       1.21173323      -1.50928479      -1.33079890       0.00000000
Si      -0.01292181      -2.70096345       2.70639438       0.00000000
Si       2.70275530       0.01562211       2.70591206       0.00000000
Si       2.69496868      -2.71423980      -0.00197404       0.00000000
Si      -2.72625277       2.70668124      -0.02063956       0.00000000
Si      -0.01447716       2.72958498       2.70594652       0.00000000
Si       2.69834071       2.73813723      -0.02678561       0.00000000
