10
Lattice="16.28999089631971 0.0 0.0 0.0 16.28999089631971 0.0 0.0 0.0 34.450931932916035" Properties=species:S:1:pos:R:3:initial_magmoms:R:1 pbc="T T T"
Si      -1.18526040      -1.61269371       1.24385159       0.00000000
Si      -1.34066700       1.35374787      -1.46685260       0.00000000
Si       1.38432420      -1.35892809      -1.45496702       0.00000000
Si       0.94488516       1.85986188       1.32925550       0.00000000
Si      -1.48533849      -0.56707119       3.24755336       0.00000000
Si       2.62997163       2.68102449      -0.15323783       0.00000000
Si      -2.53619010       2.84321655       0.02656168       0.00000000
Si      -2.76815970      -2.73873996      -0.07816921       0.00000000
Si      -2.69356779      -0.00107514      -2.84971378       0.00000000
Si       2.79086796      -2.76354963       0.03882622       0.00000000
