10
Lattice="16.28999089631971 0.0 0.0 0.0 16.28999089631971 0.0 0.0 0.0 34.450931932916035" Properties=species:S:1:pos:R:3:initial_magmoms:R:1 pbc="T T T"
Si      -1.58327397       1.68741987       0.20574108       0.00000000
Si       0.03761361      -1.34602641       1.89879863       0.00000000
Si       2.23290288       0.93890673       0.26027694       0.00000000
Si      -0.73076940      -1.46763126      -1.84812128       0.00000000
Si       1.99391229      -2.17121265       0.89848081       0.00000000
Si      -3.15320643      -0.24162957       0.15999022       0.00000000
Si       0.79711857       0.44986464       3.35762415       0.00000000
Si      -0.21313836       3.45990545      -0.85720857       0.00000000
Si       3.07190304       0.31237704      -1.82720955       0.00000000
Si       1.59252669       3.15158462       0.65801317       0.00000000
