10
Lattice="16.28999089631971 0.0 0.0 0.0 16.28999089631971 0.0 0.0 0.0 34.450931932916035" Properties=species:S:1:pos:R:3:initial_magmoms:R:1 pbc="T T T"
Si       1.64046816       1.25056116      -1.18263225       0.00000000
Si       1.65675816      -1.01869515       1.46058253       0.00000000
Si      -1.82483838       1.61160458      -0.34595645       0.00000000
Si      -0.84541842      -2.08205748      -1.08968359       0.00000000
Si       2.11199850      -0.71972478      -2.36402427       0.00000000
Si       2.89901727      -1.96287984      -0.41427269       0.00000000
Si       0.17948322      -1.83312999      -3.27552754       0.00000000
Si       0.40754322      -1.85078835       3.25540818       0.00000000
Si      -3.14569674       1.45064635       1.55136078       0.00000000
Si      -3.23669268      -2.06161353      -0.73473544       0.00000000
