10
Lattice="16.28999089631971 0.0 0.0 0.0 16.28999089631971 0.0 0.0 0.0 34.450931932916035" Properties=species:S:1:pos:R:3:initial_magmoms:R:1 pbc="T T T"
Si      -1.40302512       1.22925969      -1.37690461       0.00000000
Si      -1.35982404      -1.34862304       1.35102506       0.00000000
Si       1.35663350       1.36541151       1.35512472       0.00000000
Si       1.38428740      -1.34076148      -1.37179554       0.00000000
Si       0.10553104       2.38251024      -2.69026275       0.00000000
Si       2.70452186      -2.70778600      -0.00901581       0.00000000
Si       2.70505943       2.71111212       0.00178111       0.00000000
Si      -0.00181316      -2.70507810       2.71152757       0.00000000
Si       2.70924596       0.00920385       2.71004618       0.00000000
Si      -2.71381626      -2.71224332      -0.02700955       0.00000000
