10
Lattice="16.28999089631971 0.0 0.0 0.0 16.28999089631971 0.0 0.0 0.0 34.450931932916035" Properties=species:S:1:pos:R:3:initial_magmoms:R:1 pbc="T T T"
Si       1.35982404       1.34862304      -1.35102506       0.00000000
Si       1.35801088      -1.35645506       1.36050251       0.00000000
Si      -1.35817875       1.35968395       1.35843546       0.00000000
Si      -1.35399222      -1.36362028      -1.37803460       0.00000000
Si      -0.04320108       2.57788273      -2.72792967       0.00000000
Si      -2.65359213       0.08541662      -2.75309609       0.00000000
Si       2.71334452      -2.71440337       0.00513319       0.00000000
Si       2.71350905       0.00096763       2.71697427       0.00000000
Si       2.71645754       2.71403455       0.00409966       0.00000000
Si      -2.71648782      -2.71401241      -0.00058567       0.00000000
