10
Lattice="16.28999089631971 0.0 0.0 0.0 16.28999089631971 0.0 0.0 0.0 34.450931932916035" Properties=species:S:1:pos:R:3:initial_magmoms:R:1 pbc="T T T"
Si       2.17645803      -0.48009888      -0.64402608       0.00000000
Si      -0.17734923       0.07226244       2.32919436       0.00000000
Si      -1.20251151      -1.72456854      -1.13867284       0.00000000
Si       0.06048477       2.30117427      -0.79430113       0.00000000
Si       1.85481198      -0.04308705      -2.95279103       0.00000000
Si      -3.36061071      -0.80917317      -0.68168097       0.00000000
Si      -0.09927126      -1.40050017      -3.24975823       0.00000000
Si      -2.22234696       1.17810909       2.71197888       0.00000000
Si       2.74169564      -2.52757432       0.31264238       0.00000000
Si       2.05864875       0.45854721       3.10627001       0.00000000
