10
Lattice="16.28999089631971 0.0 0.0 0.0 16.28999089631971 0.0 0.0 0.0 34.450931932916035" Properties=species:S:1:pos:R:3:initial_magmoms:R:1 pbc="T T T"
Si      -0.86174100       0.10276058       2.20696238       0.00000000
Si       0.63907299       1.99891006      -1.12427234       0.00000000
Si      -1.98265590      -0.80643645      -1.09543689       0.00000000
Si       2.22029442      -0.68053430       0.68019958       0.00000000
Si      -0.06050106      -2.06190090       2.57121229       0.00000000
Si      -1.40592474       3.10475671      -0.74148782       0.00000000
Si       0.04683375       2.20123186       2.72214191       0.00000000
Si      -2.75641461       1.39337818      -1.74614646       0.00000000
Si       2.87507097       2.38519483      -0.34719669       0.00000000
Si       2.13799734      -2.71809468       1.74983271       0.00000000
