10
Lattice="16.28999089631971 0.0 0.0 0.0 16.28999089631971 0.0 0.0 0.0 34.450931932916035" Properties=species:S:1:pos:R:3:initial_magmoms:R:1 pbc="T T T"
Si       1.35485559       1.35853713      -1.35778089       0.00000000
Si      -1.35610992      -1.35795069      -1.35736748       0.00000000
Si      -1.35742941       1.35702216       1.35726412       0.00000000
Si       1.35775521      -1.35762489       1.35747083       0.00000000
Si      -0.00029322       2.71363707      -2.71197888       0.00000000
Si      -0.00317655      -2.71269225      -2.71335692       0.00000000
Si      -2.71145421      -0.00237834      -2.71673311       0.00000000
Si       2.71451673       0.00153126       2.71394258       0.00000000
Si       2.71435383       2.71456560      -0.00013780       0.00000000
Si      -0.00026064       2.71375110       2.71535507       0.00000000
