10
Lattice="16.28999089631971 0.0 0.0 0.0 16.28999089631971 0.0 0.0 0.0 34.450931932916035" Properties=species:S:1:pos:R:3:initial_magmoms:R:1 pbc="T T T"
Si       2.16241672      -0.89570565       0.40631452       0.00000000
Si      -1.16999667       0.08889453      -2.20282827       0.00000000
Si      -1.47191553      -0.71405586       1.94289584       0.00000000
Si       1.22997712       2.28335301      -0.14738117       0.00000000
Si      -1.09063179       1.54942335       2.60538763       0.00000000
Si      -2.65419486       2.54806551       0.18145316       0.00000000
Si       1.11636414       2.74020606       2.38576282       0.00000000
Si       0.56959614       1.09885824      -3.65345447       0.00000000
Si       3.12680753       0.16723314       2.48952909       0.00000000
Si      -2.80981323       1.93347639      -2.19772953       0.00000000
