10
Lattice="16.28999089631971 0.0 0.0 0.0 16.28999089631971 0.0 0.0 0.0 34.450931932916035" Properties=species:S:1:pos:R:3:initial_magmoms:R:1 pbc="T T T"
Si       2.30417882       0.21905163       0.09177733       0.00000000
Si      -0.83267964       2.08414260      -0.68650410       0.00000000
Si      -0.38211453      -1.99757754      -1.19169285       0.00000000
Si      -0.78566670       0.07705170       2.25357452       0.00000000
Si      -2.60394021      -1.44300078       1.81380813       0.00000000
Si      -2.58007536      -2.35812411      -0.38550614       0.00000000
Si       3.28684049      -1.83141954       0.74503627       0.00000000
Si       3.28519520       1.32755355      -1.72385670       0.00000000
Si      -1.66568508       3.31858251       1.37114786       0.00000000
Si       1.87102120      -2.31702444       2.61503390       0.00000000
