10
Lattice="16.28999089631971 0.0 0.0 0.0 16.28999089631971 0.0 0.0 0.0 34.450931932916035" Properties=species:S:1:pos:R:3:initial_magmoms:R:1 pbc="T T T"
Si       1.34852855       1.36311462      -1.39925983       0.00000000
Si      -1.36444928      -1.35329175      -1.39605589       0.00000000
Si      -1.39593638       1.37893221       1.44773232       0.00000000
Si       1.46492060      -1.36964691       1.61251122       0.00000000
Si       2.70331898      -2.69353521      -0.03203938       0.00000000
Si       2.69229065       2.71241532      -0.01298801       0.00000000
Si      -2.71964549      -2.71096551      -0.00506429       0.00000000
Si      -2.72425556       2.71845891      -0.02969672       0.00000000
Si       2.70722858       0.00550602      -2.76072697       0.00000000
Si      -0.00797721      -2.71148679      -2.76141599       0.00000000
