10
Lattice="16.28999089631971 0.0 0.0 0.0 16.28999089631971 0.0 0.0 0.0 34.450931932916035" Properties=species:S:1:pos:R:3:initial_magmoms:R:1 pbc="T T T"
Si       1.23839838      -1.32388830      -1.64455061       0.00000000
Si      -0.99180036      -1.80576279       1.37841701       0.00000000
Si      -1.46492060       1.36964691      -1.61251122       0.00000000
Si       1.97535798       0.98717400       1.37886487       0.00000000
Si       2.66463675      -2.55676437      -0.25731415       0.00000000
Si       0.79206867      -3.58578738       0.95315447       0.00000000
Si       2.63440251       2.72771163      -0.22024493       0.00000000
Si      -2.82137003      -2.73163752      -0.09119167       0.00000000
Si      -2.86085699       2.74857912      -0.16477890       0.00000000
Si       2.59400331       0.01511712      -3.01576736       0.00000000
