10
Lattice="16.28999089631971 0.0 0.0 0.0 16.28999089631971 0.0 0.0 0.0 34.450931932916035" Properties=species:S:1:pos:R:3:initial_magmoms:R:1 pbc="T T T"
Si       0.87467756       1.83413997       1.23196601       0.00000000
Si      -1.32831918       1.33952670      -1.47742904       0.00000000
Si       1.39593638      -1.37893221      -1.44773232       0.00000000
Si      -1.73959281      -1.00996371       1.45062620       0.00000000
Si      -2.63220336       2.65075767       0.03634575       0.00000000
Si       0.66038098       1.18449477       3.50607330       0.00000000
Si      -3.37940937       0.83461815       1.45572494       0.00000000
Si      -0.56959614      -1.09885824       3.65345447       0.00000000
Si      -2.68211592      -0.01806561      -2.84847355       0.00000000
Si       0.02734879       2.69527824      -2.84568302       0.00000000
