10
Lattice="16.28999089631971 0.0 0.0 0.0 16.28999089631971 0.0 0.0 0.0 34.450931932916035" Properties=species:S:1:pos:R:3:initial_magmoms:R:1 pbc="T T T"
Si       0.14703354       2.37988755      -0.27043997       0.00000000
Si      -1.84037904      -1.39134519       0.81545401       0.00000000
Si      -0.15561837      -0.61458912      -2.37918269       0.00000000
Si       1.56356307      -0.99864216       2.42393447       0.00000000
Si       2.65419486      -2.54806551      -0.18145316       0.00000000
Si       1.48419819      -2.45917098      -2.38428143       0.00000000
Si       1.75671360       3.17883060       1.18411364       0.00000000
Si       1.18227933      -3.26212137       1.76144268       0.00000000
Si       3.88417198      -0.26471250      -0.32883433       0.00000000
Si      -3.70696869      -1.28407554      -0.78944355       0.00000000
