10
Lattice="16.28999089631971 0.0 0.0 0.0 16.28999089631971 0.0 0.0 0.0 34.450931932916035" Properties=species:S:1:pos:R:3:initial_magmoms:R:1 pbc="T T T"
Si       0.48558861       2.25347715       0.08006401       0.00000000
Si       0.67331457       0.11466531      -2.26211836       0.00000000
Si      -2.35120086      -0.31586310       0.04585422       0.00000000
Si       1.62678456       0.24487128       2.37001874       0.00000000
Si      -0.00485442      -3.13536888       1.03728369       0.00000000
Si       3.26111858      -0.08060292       0.75781757       0.00000000
Si       2.74753560       1.95193296      -0.25286998       0.00000000
Si       0.63167733       2.44488465       2.36554011       0.00000000
Si      -2.25820125      -2.52284859       0.93117476       0.00000000
Si       0.82191195      -1.89089433       2.88612844       0.00000000
