10
Lattice="16.28999089631971 0.0 0.0 0.0 16.28999089631971 0.0 0.0 0.0 34.450931932916035" Properties=species:S:1:pos:R:3:initial_magmoms:R:1 pbc="T T T"
Si      -0.04250061      -1.16996409       2.12266091       0.00000000
Si      -1.61106471       1.78742025      -0.73952412       0.00000000
Si       2.14694055       1.21388193       0.51855572       0.00000000
Si       0.83300544      -1.23443991      -2.05765196       0.00000000
Si       1.30653945       3.05013960      -0.76711933       0.00000000
Si       0.88001838      -3.24153081       0.88242666       0.00000000
Si      -1.18851840       1.27987272      -3.04384489       0.00000000
Si      -0.64863522       3.67642494       0.31436493       0.00000000
Si       0.96440058       2.20191930      -2.88543942       0.00000000
Si      -0.96886404      -1.03117329      -3.48119972       0.00000000
