10
Lattice="16.28999089631971 0.0 0.0 0.0 16.28999089631971 0.0 0.0 0.0 34.450931932916035" Properties=species:S:1:pos:R:3:initial_magmoms:R:1 pbc="T T T"
Si      -1.36249560      -1.35039213       1.37744894       0.00000000
Si       1.35399222       1.36362028       1.37803460       0.00000000
Si      -1.29959991       1.44903690      -1.37506149       0.00000000
Si       1.44581895      -1.33654563      -1.43431368       0.00000000
Si      -2.72158659      -2.69669547       0.00321083       0.00000000
Si       2.72685137      -2.69496873       0.01895836       0.00000000
Si       2.71381626       2.71224332       0.02700955       0.00000000
Si      -0.00430056      -2.70707220       2.73705572       0.00000000
Si       2.71200310       0.00716522       2.73853712       0.00000000
Si      -2.71964808       0.00659427       2.73709018       0.00000000
