10
Lattice="16.28999089631971 0.0 0.0 0.0 16.28999089631971 0.0 0.0 0.0 34.450931932916035" Properties=species:S:1:pos:R:3:initial_magmoms:R:1 pbc="T T T"
Si       1.35371529      -1.35410625      -1.35940008       0.00000000
Si       1.34874684       1.34369694       1.37831366       0.00000000
Si      -1.36016613       1.35987291      -1.35891777       0.00000000
Si      -1.35602847      -1.35508365       1.39209404       0.00000000
Si      -0.11038104       2.68486893       2.69382323       0.00000000
Si       2.71006744      -2.71518462       0.00385851       0.00000000
Si       2.71218379       0.00228060      -2.71635415       0.00000000
Si      -0.00231318      -2.71311579      -2.71607854       0.00000000
Si      -2.71779102      -2.71197549       0.00416857       0.00000000
Si      -2.71655298       2.71469763       0.00058567       0.00000000
