10
Lattice="16.28999089631971 0.0 0.0 0.0 16.28999089631971 0.0 0.0 0.0 34.450931932916035" Properties=species:S:1:pos:R:3:initial_magmoms:R:1 pbc="T T T"
Si      -0.56671281       2.20141431      -0.37572207       0.00000000
Si       0.31051998       0.21711312       2.32823149       0.00000000
Si      -1.03726575      -1.38236940      -1.64255245       0.00000000
Si       2.19229191      -1.06189623      -0.13601236       0.00000000
Si      -0.39416913       1.99422180      -2.69475340       0.00000000
Si       2.26949022      -1.26806247       2.27559733       0.00000000
Si      -0.05624937      -0.27386748      -3.45818648       0.00000000
Si      -0.05460408      -3.43284057      -0.98929351       0.00000000
Si       1.38909717       3.39758901       0.27161130       0.00000000
Si       3.50425593       0.34135695      -1.50695351       0.00000000
