10
Lattice="16.28999089631971 0.0 0.0 0.0 16.28999089631971 0.0 0.0 0.0 34.450931932916035" Properties=species:S:1:pos:R:3:initial_magmoms:R:1 pbc="T T T"
Si      -1.35677340       1.35312885      -1.36256957       0.00000000
Si      -1.35731097      -1.35773892       1.35781534       0.00000000
Si       1.35852429       1.35764118       1.35778089       0.00000000
Si       1.35801115      -1.35744570      -1.35926228       0.00000000
Si      -2.71361637      -0.00070047       2.71556178       0.00000000
Si      -2.71373040       2.71573848       0.00034451       0.00000000
Si       0.00088060       2.71469592       2.71528617       0.00000000
Si       0.00064065      -2.71494027       2.71528617       0.00000000
Si      -2.71680921      -2.71376739       0.00017225       0.00000000
Si       2.71467493       2.71627605       0.00062012       0.00000000
