10
Lattice="16.28999089631971 0.0 0.0 0.0 16.28999089631971 0.0 0.0 0.0 34.450931932916035" Properties=species:S:1:pos:R:3:initial_magmoms:R:1 pbc="T T T"
Si      -1.61226202      -1.47748671      -0.77941832       0.00000000
Si      -0.48959269       1.68472809      -1.55225651       0.00000000
Si       1.73656287      -1.52866989      -0.55789870       0.00000000
Si      -0.31701969       0.71066754       2.27372833       0.00000000
Si       1.11239523      -3.29009130       0.93169152       0.00000000
Si      -2.65860035       2.34103590      -0.93110586       0.00000000
Si      -1.09867905      -3.51002259       0.23126924       0.00000000
Si       0.93377538      -2.36315772      -2.82229082       0.00000000
Si       0.92725938       2.76275142       2.55567491       0.00000000
Si       0.76841559       3.58976214      -1.32074612       0.00000000
