10
Lattice="16.28999089631971 0.0 0.0 0.0 16.28999089631971 0.0 0.0 0.0 34.450931932916035" Properties=species:S:1:pos:R:3:initial_magmoms:R:1 pbc="T T T"
Si      -1.63433402       0.32547420       1.61220116       0.00000000
Si      -0.51358297       2.03253588      -1.01068755       0.00000000
Si       2.21107428       0.21993129       0.70042229       0.00000000
Si       0.09748913      -1.86386922      -1.42334105       0.00000000
Si      -3.26111858       0.08060292      -0.75781757       0.00000000
Si      -0.38080807       1.38605094      -3.23956074       0.00000000
Si       2.83524192       1.98135270      -0.78916794       0.00000000
Si       1.59482358      -3.24100953      -0.29131724       0.00000000
Si       1.09867905       3.51002259      -0.23126924       0.00000000
Si      -2.77552997       2.33408007      -0.67775356       0.00000000
