10
Lattice="16.28999089631971 0.0 0.0 0.0 16.28999089631971 0.0 0.0 0.0 34.450931932916035" Properties=species:S:1:pos:R:3:initial_magmoms:R:1 pbc="T T T"
Si       1.02438036       0.44999496       2.06643695       0.00000000
Si      -0.31353363       1.77538194      -1.53179264       0.00000000
Si       1.28018223      -1.91024685      -0.58973138       0.00000000
Si      -1.66017254      -1.72121769       0.12295544       0.00000000
Si      -1.94618650      -1.54158786       2.41504613       0.00000000
Si       0.33611157      -1.57289724       3.10020665       0.00000000
Si      -2.64046958       2.08761237      -1.11297243       0.00000000
Si       3.30906915       0.42655365       1.31399373       0.00000000
Si      -0.25242984      -3.60022032       0.23547225       0.00000000
Si       1.11588129      -2.22537690      -2.87382945       0.00000000
