10
Lattice="16.28999089631971 0.0 0.0 0.0 16.28999089631971 0.0 0.0 0.0 34.450931932916035" Properties=species:S:1:pos:R:3:initial_magmoms:R:1 pbc="T T T"
Si      -1.35633131       1.35210162      -1.35946898       0.00000000
Si       1.34896269       1.35951357       1.36611802       0.00000000
Si       1.35902828      -1.36130643      -1.35846991       0.00000000
Si      -1.36213055      -1.37819916       1.37896822       0.00000000
Si       2.66447142      -0.00374670       2.75245874       0.00000000
Si      -2.71301138       2.70927854       0.00144694       0.00000000
Si       0.00110547       2.71040255      -2.71532062       0.00000000
Si       2.71695780       2.71069577      -0.00024116       0.00000000
Si      -2.71385846      -0.00421097      -2.71580293       0.00000000
Si       2.71640394      -0.00400911      -2.71566513       0.00000000
