10
Lattice="16.28999089631971 0.0 0.0 0.0 16.28999089631971 0.0 0.0 0.0 34.450931932916035" Properties=species:S:1:pos:R:3:initial_magmoms:R:1 pbc="T T T"
Si      -2.29659093       0.03233565       0.57336718       0.00000000
Si       0.82308157      -2.00446821       1.19971992       0.00000000
Si       0.96961012       1.69174649       1.71314245       0.00000000
Si      -0.29643728       0.27767934      -2.66002684       0.00000000
Si      -0.83583501      -3.54115278       0.48331239       0.00000000
Si      -2.74489173      -2.28926628       0.97482411       0.00000000
Si       0.25884810      -1.46725659       3.45105513       0.00000000
Si       3.05218888       2.29563634       0.77752352       0.00000000
Si       3.19659973      -1.85828175       1.34575751       0.00000000
Si       1.51685638       0.43777746       3.68256553       0.00000000
