10
Lattice="16.28999089631971 0.0 0.0 0.0 16.28999089631971 0.0 0.0 0.0 34.450931932916035" Properties=species:S:1:pos:R:3:initial_magmoms:R:1 pbc="T T T"
Si      -1.25800828      -1.90503405      -0.23151039       0.00000000
Si      -0.25559010       0.82794041       2.18625736       0.00000000
Si       2.14267257      -0.88223382      -0.45495926       0.00000000
Si      -0.54724626       1.25396903      -1.96942308       0.00000000
Si      -0.69377481      -2.44224567      -2.48284560       0.00000000
Si       1.04301612       2.83658489       1.96473775       0.00000000
Si       3.19200921       0.98427994      -1.45200424       0.00000000
Si      -3.42701594      -1.24872624       0.38964026       0.00000000
Si       1.67974335      -2.29605921      -2.33680802       0.00000000
Si       1.53533250       1.85785888      -2.90504201       0.00000000
