10
Lattice="16.28999089631971 0.0 0.0 0.0 16.28999089631971 0.0 0.0 0.0 34.450931932916035" Properties=species:S:1:pos:R:3:initial_magmoms:R:1 pbc="T T T"
Si      -1.65891658      -1.53668457      -0.71640753       0.00000000
Si      -0.56423347       0.53721162       2.25133521       0.00000000
Si       2.37351816       0.14618646       0.14603758       0.00000000
Si      -0.82308157       2.00446821      -1.19971992       0.00000000
Si       0.69377481       2.44224567       2.48284560       0.00000000
Si      -3.56797331      -0.28479807      -0.22489581       0.00000000
Si      -1.55412790      -3.27148812       0.79530021       0.00000000
Si       0.14652855       3.69621470       0.51342253       0.00000000
Si       0.85913460      -3.51067419       0.98130089       0.00000000
Si      -3.11967251       2.03680386      -0.62635274       0.00000000
