10
Lattice="16.28999089631971 0.0 0.0 0.0 16.28999089631971 0.0 0.0 0.0 34.450931932916035" Properties=species:S:1:pos:R:3:initial_magmoms:R:1 pbc="T T T"
Si       2.33727291      -0.22724550      -0.28525388       0.00000000
Si      -0.41443389       1.65495113      -1.69016367       0.00000000
Si      -0.43132662       1.42078122       1.89862637       0.00000000
Si      -1.24427907      -2.05208388      -0.28194658       0.00000000
Si      -2.61070056       2.13370234      -0.93799605       0.00000000
Si       1.19092932       3.03670102       1.32811862       0.00000000
Si       3.07011114       1.98758755       0.21617972       0.00000000
Si       3.26135574      -1.38398211       1.55528819       0.00000000
Si      -0.92725938      -2.76275142      -2.55567491       0.00000000
Si      -2.37009237       2.81385545       1.35309556       0.00000000
