10
Lattice="10.86 0.0 0.0 0.0 10.86 0.0 0.0 0.0 10.86" Properties=species:S:1:pos:R:3:initial_magmoms:R:1 pbc="T T T"
Si       1.33296726       1.38203274      -1.35865116       0.00000000
Si      -1.38203274      -1.33296726      -1.35865116       0.00000000
Si      -1.38203274       1.38203274       1.35634884       0.00000000
Si       1.40521884      -1.40521884       1.38988452       0.00000000
Si       2.69046726       0.02453274      -2.71615116       0.00000000
Si      -0.02453274      -2.69046726      -2.71615116       0.00000000
Si       2.69046726       2.73953274      -0.00115116       0.00000000
Si      -2.73953274      -2.69046726      -0.00115116       0.00000000
Si      -0.02453274       2.73953274       2.71384884       0.00000000
Si      -2.73953274       0.02453274       2.71384884       0.00000000
