10
Lattice="10.86 0.0 0.0 0.0 10.86 0.0 0.0 0.0 10.86" Properties=species:S:1:pos:R:3:initial_magmoms:R:1 pbc="T T T"
Si      -1.30521996       1.23132852      -1.43532276       0.00000000
Si      -1.30521996      -1.48367148       1.27967724       0.00000000
Si       1.51175544       1.13314326       1.49638854       0.00000000
Si       1.40978004      -1.48367148      -1.43532276       0.00000000
Si       0.25153932       2.55661776       2.65215318       0.00000000
Si       2.73408102       2.48612550       0.00525624       0.00000000
Si      -2.66271996       2.58882852      -0.07782276       0.00000000
Si      -2.66271996      -0.12617148       2.63717724       0.00000000
Si       0.05228004       2.58882852      -2.79282276       0.00000000
Si      -2.66271996      -0.12617148      -2.79282276       0.00000000
