10
Lattice="10.86 0.0 0.0 0.0 10.86 0.0 0.0 0.0 10.86" Properties=species:S:1:pos:R:3:initial_magmoms:R:1 pbc="T T T"
Si       1.24735788       1.38329250       1.32830832       0.00000000
Si       1.24735788      -1.33170750      -1.38669168       0.00000000
Si      -1.46764212      -1.33170750       1.32830832       0.00000000
Si      -2.40844392       0.25804446      -2.47646010       0.00000000
Si       2.60485788       0.02579250       2.68580832       0.00000000
Si       2.60485788      -2.68920750      -0.02919168       0.00000000
Si      -0.06573558      -2.43589800      -2.86835406       0.00000000
Si       2.60485788       2.74079250      -0.02919168       0.00000000
Si       2.60485788       0.02579250      -2.74419168       0.00000000
Si      -0.11014212      -2.68920750       2.68580832       0.00000000
