10
Lattice="10.86 0.0 0.0 0.0 10.86 0.0 0.0 0.0 10.86" Properties=species:S:1:pos:R:3:initial_magmoms:R:1 pbc="T T T"
Si      -1.05389784       1.42456050      -1.47330018       0.00000000
Si       1.61451276       0.89796996       1.64320488       0.00000000
Si       1.61451276      -1.81703004      -1.07179512       0.00000000
Si      -1.10048724      -1.81703004       1.64320488       0.00000000
Si      -2.26781778       2.37700422       0.19626192       0.00000000
Si      -2.44806120      -0.33369522      -2.22778782       0.00000000
Si       2.85056538       2.29113420       0.24954108       0.00000000
Si       2.66278512      -0.36846894      -2.54530164       0.00000000
Si       0.25701276       2.25546996       3.00070488       0.00000000
Si      -2.45798724      -0.45953004       3.00070488       0.00000000
