10
Lattice="10.86 0.0 0.0 0.0 10.86 0.0 0.0 0.0 10.86" Properties=species:S:1:pos:R:3:initial_magmoms:R:1 pbc="T T T"
Si      -1.23605262      -1.39316424       1.39366380       0.00000000
Si       1.47894738      -1.39316424      -1.32133620       0.00000000
Si       1.47894738       1.32183576       1.39366380       0.00000000
Si      -2.43116304       2.61002724       0.06688674       0.00000000
Si      -2.85056538      -2.29113420      -0.24954108       0.00000000
Si      -2.59355262      -0.03566424       2.75116380       0.00000000
Si       0.21295374       2.59666944      -2.80204290       0.00000000
Si       0.12144738       2.67933576       2.75116380       0.00000000
Si      -0.18778026      -2.65960314      -2.79484272       0.00000000
Si       0.12144738      -2.75066424       2.75116380       0.00000000
