10
Lattice="10.86 0.0 0.0 0.0 10.86 0.0 0.0 0.0 10.86" Properties=species:S:1:pos:R:3:initial_magmoms:R:1 pbc="T T T"
Si      -1.29594552      -1.32679878       1.02858318       0.00000000
Si       1.41905448       1.38820122       1.02858318       0.00000000
Si       1.41905448      -1.32679878      -1.68641682       0.00000000
Si       0.06155448      -2.68429878       2.38608318       0.00000000
Si       2.77655448       0.03070122       2.38608318       0.00000000
Si      -0.09981426       2.88473094       2.30131002       0.00000000
Si      -2.65344552      -2.68429878      -0.32891682       0.00000000
Si      -2.89203972       0.05059674       2.46640374       0.00000000
Si       2.77655448      -2.68429878      -0.32891682       0.00000000
Si      -0.11581104       2.56920450      -2.91677880       0.00000000
