10
Lattice="10.86 0.0 0.0 0.0 10.86 0.0 0.0 0.0 10.86" Properties=species:S:1:pos:R:3:initial_magmoms:R:1 pbc="T T T"
Si       1.35750000       1.35750000       1.35750000       0.00000000
Si      -1.35750000       1.35750000      -1.35750000       0.00000000
Si      -1.35750000      -1.35750000       1.35750000       0.00000000
Si       1.35750000      -1.35750000      -1.35750000       0.00000000
Si      -0.04170240       2.50134036      -2.81334816       0.00000000
Si      -0.23859420      -2.69510448      -2.63467944       0.00000000
Si      -0.18845358      -2.65183824       2.68567800       0.00000000
Si       2.55363126       0.13902972      -2.79977316       0.00000000
Si      -2.83282014      -0.09237516       2.55173076       0.00000000
Si       2.53763448      -0.17649672       2.84213802       0.00000000
