10
Lattice="10.86 0.0 0.0 0.0 10.86 0.0 0.0 0.0 10.86" Properties=species:S:1:pos:R:3:initial_magmoms:R:1 pbc="T T T"
Si      -1.26908874       1.19219994      -1.22283600       0.00000000
Si       1.34252406       1.12508514       1.48425792       0.00000000
Si       1.44591126      -1.52280006      -1.22283600       0.00000000
Si      -1.26908874      -1.52280006       1.49216400       0.00000000
Si       0.23042748       2.53395294      -2.43475770       0.00000000
Si       0.10823076       2.28665988       2.72812974       0.00000000
Si      -2.62658874       2.54969994       0.13466400       0.00000000
Si      -2.62658874      -0.16530006      -2.58033600       0.00000000
Si       0.08841126      -2.88030006      -2.58033600       0.00000000
Si      -2.62658874      -0.16530006       2.84966400       0.00000000
