10
Lattice="10.86 0.0 0.0 0.0 10.86 0.0 0.0 0.0 10.86" Properties=species:S:1:pos:R:3:initial_magmoms:R:1 pbc="T T T"
Si       1.29153636       1.36174626       1.22204322       0.00000000
Si      -1.42346364      -1.35325374       1.22204322       0.00000000
Si      -1.42346364       1.36174626      -1.49295678       0.00000000
Si       2.64903636       0.00424626       2.57954322       0.00000000
Si       2.58805746      -2.65997238      -0.17460708       0.00000000
Si      -2.35266696      -0.12196866      -2.90559300       0.00000000
Si      -0.06596364      -2.71075374       2.57954322       0.00000000
Si      -0.06596364       2.71924626       2.57954322       0.00000000
Si      -2.78096364       0.00424626       2.57954322       0.00000000
Si       2.64903636       2.71924626      -0.13545678       0.00000000
