10
Lattice="10.86 0.0 0.0 0.0 10.86 0.0 0.0 0.0 10.86" Properties=species:S:1:pos:R:3:initial_magmoms:R:1 pbc="T T T"
Si      -1.35001746      -1.36498254      -1.31711166       0.00000000
Si       1.36498254       1.35001746      -1.31711166       0.00000000
Si       1.36498254      -1.36498254       1.39788834       0.00000000
Si      -1.37983902       1.37983902       1.47499434       0.00000000
Si      -2.59796178       2.59796178       0.13528302       0.00000000
Si      -2.70751746      -0.00748254      -2.67461166       0.00000000
Si       0.00748254       2.70751746      -2.67461166       0.00000000
Si       2.72248254      -0.00748254      -2.67461166       0.00000000
Si       0.00748254      -2.72248254      -2.67461166       0.00000000
Si       2.72248254       2.70751746       0.04038834       0.00000000
