10
Lattice="10.86 0.0 0.0 0.0 10.86 0.0 0.0 0.0 10.86" Properties=species:S:1:pos:R:3:initial_magmoms:R:1 pbc="T T T"
Si       1.27780932       1.15776288      -1.43648478       0.00000000
Si      -1.43719068       1.15776288       1.27851522       0.00000000
Si       1.27780932      -1.55723712       1.27851522       0.00000000
Si       2.63530932       2.51526288      -0.07898478       0.00000000
Si      -0.07969068       2.51526288       2.63601522       0.00000000
Si       2.63530932      -0.19973712       2.63601522       0.00000000
Si      -0.07969068       2.51526288      -2.79398478       0.00000000
Si      -2.79469068       2.51526288      -0.07898478       0.00000000
Si       2.63530932      -0.19973712      -2.79398478       0.00000000
Si      -2.79469068      -0.19973712       2.63601522       0.00000000
