10
Lattice="10.86 0.0 0.0 0.0 10.86 0.0 0.0 0.0 10.86" Properties=species:S:1:pos:R:3:initial_magmoms:R:1 pbc="T T T"
Si      -1.21246470      -1.33608408       1.05283356       0.00000000
Si       1.76798628       1.20227802       1.06163016       0.00000000
Si      -1.21246470       1.37891592      -1.66216644       0.00000000
Si       1.50253530      -1.33608408      -1.66216644       0.00000000
Si       2.32945914      -2.28566076       0.21802536       0.00000000
Si      -2.56996470       0.02141592       2.41033356       0.00000000
Si       0.16874268       2.79892608       2.35843362       0.00000000
Si      -2.56996470      -2.69358408      -0.30466644       0.00000000
Si      -2.56996470       2.73641592      -0.30466644       0.00000000
Si       2.81371740       2.70620340      -0.36184434       0.00000000
