10
Lattice="16.28999089631971 0.0 0.0 0.0 16.28999089631971 0.0 0.0 0.0 34.33025523377368" Properties=species:S:1:pos:R:3:initial_magmoms:R:1 pbc="T T T"
Si      -1.54584348       1.76104674      -0.15421159       0.00000000
Si       0.96173716      -0.00604359       2.15525463       0.00000000
Si      -1.15480203      -2.09906424      -0.05235367       0.00000000
Si       1.54625006       0.76486437      -1.67490543       0.00000000
Si      -0.12675412       3.64795721      -0.24525548       0.00000000
Si       2.27294696      -1.98814563       2.07711892       0.00000000
Si      -3.29330436       1.38715866       1.44084162       0.00000000
Si       2.34999866       1.85060916       2.45310409       0.00000000
Si       0.95780150       3.08136331      -2.17667672       0.00000000
Si      -2.59074924       1.94201235      -2.23878019       0.00000000
