10
Lattice="16.28999089631971 0.0 0.0 0.0 16.28999089631971 0.0 0.0 0.0 34.33025523377368" Properties=species:S:1:pos:R:3:initial_magmoms:R:1 pbc="T T T"
Si       2.11493070      -0.09083304       1.02228691       0.00000000
Si       0.51735411      -1.70160453      -1.54592659       0.00000000
Si      -1.65113811      -0.72049041       1.51997290       0.00000000
Si      -0.32203701       2.21550516      -0.86289145       0.00000000
Si      -3.41451986       0.57980997       0.73013628       0.00000000
Si       1.57464027       3.31102136      -0.06766497       0.00000000
Si      -3.43830491      -0.05664033      -1.64400818       0.00000000
Si       2.72606634      -1.40084226      -2.29573411       0.00000000
Si       3.48144993      -1.60332696      -0.11116143       0.00000000
Si       3.36129489       1.82845476       0.29582397       0.00000000
