10
Lattice="16.28999089631971 0.0 0.0 0.0 16.28999089631971 0.0 0.0 0.0 34.33025523377368" Properties=species:S:1:pos:R:3:initial_magmoms:R:1 pbc="T T T"
Si      -0.16469190      -2.06382897      -1.15414950       0.00000000
Si       1.40612022       1.68936815      -0.89262147       0.00000000
Si      -2.19310918       1.00507608      -0.04232923       0.00000000
Si      -0.27448650      -0.42718896       2.62159708       0.00000000
Si      -1.99327046      -2.69985573       0.16433902       0.00000000
Si      -3.40476380      -0.97772580      -0.36977139       0.00000000
Si       0.66096675       3.57846407       0.31625049       0.00000000
Si      -2.08931305      -1.96670799       2.55691884       0.00000000
Si       3.60082305       1.43830993      -0.10347145       0.00000000
Si       1.49679036      -3.65417280      -0.77977785       0.00000000
