10
Lattice="16.28999089631971 0.0 0.0 0.0 16.28999089631971 0.0 0.0 0.0 34.33025523377368" Properties=species:S:1:pos:R:3:initial_magmoms:R:1 pbc="T T T"
Si       1.66148226      -1.59034383       0.37437164       0.00000000
Si      -1.82857856      -0.63602676       1.31848852       0.00000000
Si       0.16469190       2.06382897       1.15414950       0.00000000
Si      -0.41967927       0.02259423      -2.36422301       0.00000000
Si      -3.24007190       1.08610317       0.78437811       0.00000000
Si       3.41790264      -0.35365590      -0.69893006       0.00000000
Si       0.81694350      -3.64814550      -0.43475860       0.00000000
Si      -2.02841728       3.06890505       1.11182027       0.00000000
Si      -2.95279775      -2.48230278       0.52233513       0.00000000
Si       1.64483388      -2.33715888       2.70069403       0.00000000
