10
Lattice="16.28999089631971 0.0 0.0 0.0 16.28999089631971 0.0 0.0 0.0 34.33025523377368" Properties=species:S:1:pos:R:3:initial_magmoms:R:1 pbc="T T T"
Si      -1.22608314      -1.41390018       1.44145956       0.00000000
Si       1.22792391      -1.51457238      -1.34990072       0.00000000
Si      -1.37753127       1.35097613      -1.40726661       0.00000000
Si       1.47315357       1.17410256       1.56415596       0.00000000
Si       1.93091886      -3.08114910       0.48591070       0.00000000
Si      -0.46964070      -3.63274479       0.82406391       0.00000000
Si      -0.03266145       1.73353049       3.35135572       0.00000000
Si       2.55492360      -0.11133808      -2.77745652       0.00000000
Si      -2.60788239       2.74808798       0.17463811       0.00000000
Si      -3.55633506      -1.36771803       0.74750740       0.00000000
