10
Lattice="16.28999089631971 0.0 0.0 0.0 16.28999089631971 0.0 0.0 0.0 34.33025523377368" Properties=species:S:1:pos:R:3:initial_magmoms:R:1 pbc="T T T"
Si      -1.57868019       1.47637899      -0.79275470       0.00000000
Si       0.89046027      -1.53125023      -1.51774143       0.00000000
Si       1.99925541       1.08056457       0.57001988       0.00000000
Si      -1.46062656      -1.24350367       1.48656954       0.00000000
Si       1.27467621      -3.18328496       0.09663972       0.00000000
Si       2.17709334       0.11921022       2.65476012       0.00000000
Si      -3.27958425       0.02234988      -1.42230327       0.00000000
Si      -0.82078794      -3.48365627       1.12709724       0.00000000
Si       1.68057414       3.35644047       0.45868680       0.00000000
Si       2.55080223      -2.10073301       1.83931311       0.00000000
