10
Lattice="16.28999089631971 0.0 0.0 0.0 16.28999089631971 0.0 0.0 0.0 34.33025523377368" Properties=species:S:1:pos:R:3:initial_magmoms:R:1 pbc="T T T"
Si      -1.03555530      -1.61722559       1.36132382       0.00000000
Si      -0.74207466       2.25158751      -0.29630460       0.00000000
Si       1.63514133       1.08045054       1.38771350       0.00000000
Si      -0.35730486      -0.44810532      -2.38289868       0.00000000
Si       0.66572343       2.85498540      -2.21052637       0.00000000
Si       0.27745128       2.39142087       2.82420890       0.00000000
Si      -2.45627136      -0.35927595       2.81984552       0.00000000
Si      -2.27416545      -1.99425275      -2.30277182       0.00000000
Si      -1.91863620      -3.27838598      -0.25047368       0.00000000
Si      -2.72603376       2.21087880      -1.53195417       0.00000000
