10
Lattice="16.28999089631971 0.0 0.0 0.0 16.28999089631971 0.0 0.0 0.0 34.33025523377368" Properties=species:S:1:pos:R:3:initial_magmoms:R:1 pbc="T T T"
Si      -1.35042471       1.35848826      -1.36164167       0.00000000
Si      -1.35107631      -1.33638273       1.39250459       0.00000000
Si       1.36412460      -1.35690813      -1.36037145       0.00000000
Si       1.35154872       1.37829690       1.38175922       0.00000000
Si       0.19450260      -2.54511702       2.80505806       0.00000000
Si      -2.70785412       2.71336014      -0.00127022       0.00000000
Si      -2.71274112      -2.71440270      -0.00243745       0.00000000
Si      -2.71026504      -0.00017919      -2.71720689       0.00000000
Si       2.71700910       2.71538010      -0.00161352       0.00000000
Si       0.00483813       2.71500543      -2.71758452       0.00000000
