10
Lattice="16.28999089631971 0.0 0.0 0.0 16.28999089631971 0.0 0.0 0.0 34.33025523377368" Properties=species:S:1:pos:R:3:initial_magmoms:R:1 pbc="T T T"
Si       1.80745695       0.31685679       1.46600571       0.00000000
Si      -1.23272946      -2.02398363      -0.16636451       0.00000000
Si       1.48758651       0.05496246      -1.85932766       0.00000000
Si      -1.75550814       1.65014442      -0.11057781       0.00000000
Si       0.57580263       1.14204303       3.28568190       0.00000000
Si       0.51419385      -1.60402743      -3.21475556       0.00000000
Si      -2.48702688       1.62209304      -2.36769037       0.00000000
Si       2.79467982      -1.84003695       1.80419324       0.00000000
Si      -0.91096938       3.70794609       0.69855242       0.00000000
Si      -2.99784870      -2.06506701       1.42226894       0.00000000
