10
Lattice="16.28999089631971 0.0 0.0 0.0 16.28999089631971 0.0 0.0 0.0 34.33025523377368" Properties=species:S:1:pos:R:3:initial_magmoms:R:1 pbc="T T T"
Si       1.39220856       1.66241079      -0.82135182       0.00000000
Si      -1.00028745       0.81208908       1.94213228       0.00000000
Si      -1.52884908      -0.33871797      -1.74404660       0.00000000
Si       1.36844145      -1.84689504       1.09118777       0.00000000
Si       2.39146974       1.45619568       1.26356008       0.00000000
Si       0.98367165       0.85279779       3.17778185       0.00000000
Si      -0.54841914      -3.39304247       1.17131463       0.00000000
Si      -3.14926425      -1.84696020      -0.83096429       0.00000000
Si       2.93179275       0.61282980      -2.27856897       0.00000000
Si      -0.32746158      -1.26723168      -3.53001047       0.00000000
