10
Lattice="16.28999089631971 0.0 0.0 0.0 16.28999089631971 0.0 0.0 0.0 34.33025523377368" Properties=species:S:1:pos:R:3:initial_magmoms:R:1 pbc="T T T"
Si       1.16611965       1.44886518       1.45673653       0.00000000
Si      -1.29725415       1.39598784      -1.43802653       0.00000000
Si       1.40677182      -1.31372334      -1.43668765       0.00000000
Si      -1.71747099      -0.77732622       1.80330065       0.00000000
Si      -2.63399526      -2.48502321       0.14796348       0.00000000
Si      -3.33218466       1.00137888       1.36253426       0.00000000
Si       2.61972522       2.67227676      -0.02784185       0.00000000
Si      -2.57354307       2.79090054      -0.01946527       0.00000000
Si       2.79650430      -2.59823871      -0.05077448       0.00000000
Si      -2.66501142       0.03505608      -2.80220865       0.00000000
