10
Lattice="16.28999089631971 0.0 0.0 0.0 16.28999089631971 0.0 0.0 0.0 34.33025523377368" Properties=species:S:1:pos:R:3:initial_magmoms:R:1 pbc="T T T"
Si      -1.38263004       1.17138132      -1.57215492       0.00000000
Si      -1.83832650      -0.87068421       1.37269602       0.00000000
Si       0.91652427       1.70769699       1.65533717       0.00000000
Si       1.31848002      -1.53082017      -1.56532319       0.00000000
Si       2.63399526       2.48502321      -0.14796348       0.00000000
Si      -2.61532692       2.53539189      -0.02907774       0.00000000
Si      -0.69818940       3.48640209       1.21457078       0.00000000
Si      -2.72789082      -2.73298959       0.01658152       0.00000000
Si      -0.03101616       2.52007929      -2.95017213       0.00000000
Si      -3.60492813       0.80860302       1.32648747       0.00000000
