10
Lattice="16.28999089631971 0.0 0.0 0.0 16.28999089631971 0.0 0.0 0.0 34.33025523377368" Properties=species:S:1:pos:R:3:initial_magmoms:R:1 pbc="T T T"
Si       0.93164139       1.28787111      -1.84823898       0.00000000
Si      -1.42835607       0.79988787       1.82722886       0.00000000
Si      -1.53870453      -1.44334287      -1.30764015       0.00000000
Si       2.22602850      -1.29332826      -0.76275004       0.00000000
Si       1.26732942      -2.84993550       0.70936646       0.00000000
Si       0.17519895       3.50671572      -1.23084333       0.00000000
Si      -3.52076422      -1.22059341       0.04222624       0.00000000
Si      -2.76282635      -1.05764454       2.28910837       0.00000000
Si       1.86289182       1.07165394       3.11708593       0.00000000
Si       2.95943688      -0.83021985       2.28189901       0.00000000
