10
Lattice="16.28999089631971 0.0 0.0 0.0 16.28999089631971 0.0 0.0 0.0 34.33025523377368" Properties=species:S:1:pos:R:3:initial_magmoms:R:1 pbc="T T T"
Si      -1.11638628       0.96695811       1.84260882       0.00000000
Si       2.16283959      -0.35385138       0.90875669       0.00000000
Si       0.00842193       1.54649115      -1.80350664       0.00000000
Si      -0.97790499      -2.13802992      -0.37838828       0.00000000
Si      -0.98561016      -1.13720490       3.02810186       0.00000000
Si      -0.33273954       3.24588024       1.21625296       0.00000000
Si       1.14554538      -3.24210096      -0.71025905       0.00000000
Si       2.34636273       1.92681378      -1.79513005       0.00000000
Si       3.02883228       1.77339456       0.47200694       0.00000000
Si       2.99322234      -1.71650988      -0.84404413       0.00000000
