10
Lattice="16.28999089631971 0.0 0.0 0.0 16.28999089631971 0.0 0.0 0.0 34.33025523377368" Properties=species:S:1:pos:R:3:initial_magmoms:R:1 pbc="T T T"
Si       0.15841699      -1.26597246       1.95981238       0.00000000
Si      -2.18650963       0.83823453      -0.15757596       0.00000000
Si       0.73611904      -0.91820214      -2.07347991       0.00000000
Si       1.78242574       1.46803851       0.62079435       0.00000000
Si       2.00750467       2.35871055      -1.52677029       0.00000000
Si       1.60440862      -2.92461605      -1.10258542       0.00000000
Si      -2.01764749       2.63624328       1.31581076       0.00000000
Si       1.77050146      -2.87525735       1.24412914       0.00000000
Si       1.02197596       0.33790347       3.52527289       0.00000000
Si      -2.25478102       2.02481442      -2.14296439       0.00000000
