10
Lattice="16.28999089631971 0.0 0.0 0.0 16.28999089631971 0.0 0.0 0.0 34.33025523377368" Properties=species:S:1:pos:R:3:initial_magmoms:R:1 pbc="T T T"
Si       1.35273789      -1.35777150       1.35810566       0.00000000
Si       1.35586557       1.35769005      -1.35666378       0.00000000
Si      -1.35902583      -1.35757602      -1.35652646       0.00000000
Si      -1.35943308       1.35669636       1.36112672       0.00000000
Si       2.71314837       0.00030951      -2.71370520       0.00000000
Si       2.71466334      -2.71332756       0.00151053       0.00000000
Si      -0.00123804      -2.71459818      -2.71373953       0.00000000
Si      -0.00074934       2.71534752      -2.71339623       0.00000000
Si      -2.71578572      -2.71339272       0.00037763       0.00000000
Si       2.71441899       2.71513575       0.00017165       0.00000000
