10
Lattice="16.28999089631971 0.0 0.0 0.0 16.28999089631971 0.0 0.0 0.0 34.33025523377368" Properties=species:S:1:pos:R:3:initial_magmoms:R:1 pbc="T T T"
Si       1.27628892      -1.39491270      -1.41856127       0.00000000
Si      -0.75864159      -1.78952166       1.38199953       0.00000000
Si      -1.44042696       1.31323464      -1.41179821       0.00000000
Si       1.38474774       1.31893614       1.47469127       0.00000000
Si      -0.31281687      -0.79923627       3.64865590       0.00000000
Si       2.57354307      -2.79090054       0.01946527       0.00000000
Si       2.62459593      -0.03922632      -2.78288070       0.00000000
Si      -2.67577911      -2.74053186       0.13835101       0.00000000
Si       2.71174743       2.72217044       0.04713547       0.00000000
Si      -0.08838954       2.67341047      -2.78071790       0.00000000
