10
Lattice="16.28999089631971 0.0 0.0 0.0 16.28999089631971 0.0 0.0 0.0 34.33025523377368" Properties=species:S:1:pos:R:3:initial_magmoms:R:1 pbc="T T T"
Si       1.27091322      -1.40318543      -1.46518178       0.00000000
Si      -1.32699969      -1.40323430       1.42755580       0.00000000
Si      -1.43122311       1.30953192      -1.44877191       0.00000000
Si       1.05225255       1.73921162       1.57733879       0.00000000
Si       2.34067752       0.27478786       2.86791679       0.00000000
Si       2.58129711       2.72351858       0.03484523       0.00000000
Si       2.48152086      -2.84079422      -0.05551205       0.00000000
Si      -2.55492360       0.11133808       2.77745652       0.00000000
Si      -2.71174743      -2.72217044      -0.04713547       0.00000000
Si      -2.61076572       2.83766261      -0.02173106       0.00000000
