10
Lattice="16.28999089631971 0.0 0.0 0.0 16.28999089631971 0.0 0.0 0.0 34.33025523377368" Properties=species:S:1:pos:R:3:initial_magmoms:R:1 pbc="T T T"
Si       1.28842497      -1.46442376       1.29057801       0.00000000
Si       1.52904456       0.98430696      -1.54249356       0.00000000
Si      -1.01084337       1.42711803       1.73848510       0.00000000
Si      -1.05225255      -1.73921162      -1.57733879       0.00000000
Si      -2.23759440       2.49039891      -0.11462879       0.00000000
Si       3.24804681      -0.08219934       1.34705131       0.00000000
Si      -2.13402258      -0.45377098       2.76427370       0.00000000
Si       0.22766904       2.29695516      -3.03977415       0.00000000
Si       3.14470305       2.20685517      -0.11349589       0.00000000
Si      -0.12074148      -1.69134541       3.51493948       0.00000000
