10
Lattice="16.28999089631971 0.0 0.0 0.0 16.28999089631971 0.0 0.0 0.0 34.33025523377368" Properties=species:S:1:pos:R:3:initial_magmoms:R:1 pbc="T T T"
Si      -1.21165462      -1.98280188      -0.32744216       0.00000000
Si       2.19310918      -1.00507608       0.04232923       0.00000000
Si      -0.91703368       1.25035166      -1.88826808       0.00000000
Si      -0.62299918       0.88615613       2.23479787       0.00000000
Si       1.91862268      -1.43226504       2.66392630       0.00000000
Si       0.19983872      -3.70493181       0.20666825       0.00000000
Si      -3.22588054       1.54167224      -1.16056926       0.00000000
Si       3.59922940       0.68429208      -0.85029224       0.00000000
Si       0.78323411       3.68633708       0.09677704       0.00000000
Si      -0.94598101       3.18732551       1.89523713       0.00000000
