10
Lattice="16.28999089631971 0.0 0.0 0.0 16.28999089631971 0.0 0.0 0.0 34.33025523377368" Properties=species:S:1:pos:R:3:initial_magmoms:R:1 pbc="T T T"
Si       0.98479566       1.57319404       1.48011545       0.00000000
Si      -0.76176927      -2.12573457       0.77994950       0.00000000
Si      -2.01328110       1.23757443      -0.75066578       0.00000000
Si       1.40916645       0.22692165      -2.22436147       0.00000000
Si      -0.57107853       1.57935166       3.26985565       0.00000000
Si      -0.89010189       3.11846344      -1.77645438       0.00000000
Si       0.56272176       3.67219312       0.33516647       0.00000000
Si       1.00631475      -3.11268051       2.00162665       0.00000000
Si      -2.40406191      -1.72309464       2.45773868       0.00000000
Si      -1.55551581      -3.01767723      -1.82891104       0.00000000
