10
Lattice="16.28999089631971 0.0 0.0 0.0 16.28999089631971 0.0 0.0 0.0 34.33025523377368" Properties=species:S:1:pos:R:3:initial_magmoms:R:1 pbc="T T T"
Si      -1.99431954      -0.79837127       0.98919253       0.00000000
Si       0.99173520       1.39435069       1.63621521       0.00000000
Si       1.80532296      -1.51076622      -0.31817298       0.00000000
Si      -0.53431200       1.63632235      -1.66680348       0.00000000
Si       1.29192732       3.36982270       0.36537711       0.00000000
Si      -0.88552440       1.81344352       3.07695384       0.00000000
Si      -2.21789979      -1.48141164      -2.65088080       0.00000000
Si       1.46588823       2.86742281      -1.94481005       0.00000000
Si       2.19928032      -2.64570681       1.67514574       0.00000000
Si      -3.51816759      -1.44122421      -0.64554648       0.00000000
