10
Lattice="16.28999089631971 0.0 0.0 0.0 16.28999089631971 0.0 0.0 0.0 34.33025523377368" Properties=species:S:1:pos:R:3:initial_magmoms:R:1 pbc="T T T"
Si      -0.17783793       0.96135435      -2.08474024       0.00000000
Si       0.37370889      -2.21994323      -0.81544701       0.00000000
Si      -2.05987050       0.77750541       1.17368342       0.00000000
Si       1.99594854       1.04422158       1.18556170       0.00000000
Si      -2.17709334      -0.11921022      -2.65476012       0.00000000
Si       0.34981146      -3.33686708       1.36246560       0.00000000
Si       1.15755111       3.27134151       1.39308821       0.00000000
Si       2.63814921      -2.24823896      -1.49432818       0.00000000
Si      -0.49651920       3.23723025      -2.19607332       0.00000000
Si       1.69942167       0.54226152      -3.52547887       0.00000000
