10
Lattice="16.28999089631971 0.0 0.0 0.0 16.28999089631971 0.0 0.0 0.0 34.33025523377368" Properties=species:S:1:pos:R:3:initial_magmoms:R:1 pbc="T T T"
Si      -1.35769005       1.31097033       1.43649540       0.00000000
Si       1.82215053       1.01491587      -1.18070843       0.00000000
Si      -1.63514133      -1.08045054      -1.38771350       0.00000000
Si       1.32703227      -1.42926831       1.42831107       0.00000000
Si      -2.37721599       1.17113697      -1.68401810       0.00000000
Si       3.09330810      -0.98494227      -1.14268456       0.00000000
Si      -2.37086289       2.89883808      -0.07532749       0.00000000
Si      -2.67069663      -2.69767613      -0.02638968       0.00000000
Si       2.49124599      -2.92612709       0.00118439       0.00000000
Si      -0.01519857       2.64417651       2.80272360       0.00000000
