10
Lattice="16.28999089631971 0.0 0.0 0.0 16.28999089631971 0.0 0.0 0.0 34.33025523377368" Properties=species:S:1:pos:R:3:initial_magmoms:R:1 pbc="T T T"
Si       0.60390288       2.04561675      -0.93326851       0.00000000
Si       1.36787130      -1.51840719      -1.17907327       0.00000000
Si       0.60033537      -0.37416501       2.31598897       0.00000000
Si      -2.32806906      -0.16557156       0.71808635       0.00000000
Si      -1.59477471      -1.03249278       2.77306225       0.00000000
Si      -0.68248584       3.50722071       0.38367515       0.00000000
Si       2.81626407       2.50678665      -0.37008036       0.00000000
Si       1.39919697       1.61099955       3.15735534       0.00000000
Si      -3.49228278      -1.22256450      -1.00186040       0.00000000
Si       1.23730695      -3.72003327      -0.40386135       0.00000000
