10
Lattice="16.28999089631971 0.0 0.0 0.0 16.28999089631971 0.0 0.0 0.0 34.33025523377368" Properties=species:S:1:pos:R:3:initial_magmoms:R:1 pbc="T T T"
Si       1.98303057       0.59800590       1.18003250       0.00000000
Si      -0.67649112      -1.89293058       1.30509426       0.00000000
Si      -1.76241510       1.60269165       0.33212416       0.00000000
Si      -0.02132361       0.53364411      -2.59787486       0.00000000
Si       0.52484751       1.87668945       2.75395200       0.00000000
Si      -2.20999914      -0.83233755       2.76364000       0.00000000
Si      -0.76525533       3.31574805       1.45488755       0.00000000
Si      -1.98342153      -3.12279300      -0.23375484       0.00000000
Si      -3.47713308       0.62304363       1.47535869       0.00000000
Si       2.76343560       2.65724109       0.08789859       0.00000000
