10
Lattice="16.28999089631971 0.0 0.0 0.0 16.28999089631971 0.0 0.0 0.0 34.33025523377368" Properties=species:S:1:pos:R:3:initial_magmoms:R:1 pbc="T T T"
Si       1.35651717       1.35583299      -1.35707575       0.00000000
Si       1.35553977      -1.35834165       1.35910123       0.00000000
Si      -1.35923760      -1.35889551      -1.35680111       0.00000000
Si      -1.36065483       1.35705474       1.35796833       0.00000000
Si      -0.00114030       2.71329498      -2.71353355       0.00000000
Si       2.71381626      -0.00149868      -2.71363654       0.00000000
Si       2.71393029       2.71366965       0.00092692       0.00000000
Si      -2.71503801       2.71334385       0.00017165       0.00000000
Si       2.71298547      -2.71669959       0.00130455       0.00000000
Si       2.70075168       0.00265527       2.72891351       0.00000000
