10
Lattice="16.28999089631971 0.0 0.0 0.0 16.28999089631971 0.0 0.0 0.0 34.33025523377368" Properties=species:S:1:pos:R:3:initial_magmoms:R:1 pbc="T T T"
Si       1.21060764      -1.43760879       1.40966973       0.00000000
Si       1.36129014       1.35418770      -1.36184766       0.00000000
Si      -1.35806472      -1.35821133      -1.36483439       0.00000000
Si      -1.27091322       1.40318543       1.46518178       0.00000000
Si       2.36957598       0.12012246       2.73402872       0.00000000
Si      -2.70213633       2.71271736       0.01640987       0.00000000
Si       2.70334179      -2.71261080       0.00611079       0.00000000
Si      -2.70637173      -2.71389771      -0.00051495       0.00000000
Si       2.70891297       2.72246692       0.01991156       0.00000000
Si      -2.71244790      -0.00192222      -2.72263107       0.00000000
