10
Lattice="16.28999089631971 0.0 0.0 0.0 16.28999089631971 0.0 0.0 0.0 34.33025523377368" Properties=species:S:1:pos:R:3:initial_magmoms:R:1 pbc="T T T"
Si       1.34734617      -1.34827443      -1.35985650       0.00000000
Si       1.35616069       1.35581670       1.35408901       0.00000000
Si      -1.35564768       1.35058761      -1.36037145       0.00000000
Si      -1.35784683      -1.35710361       1.35456964       0.00000000
Si      -0.00012524       2.71381626       2.71143940       0.00000000
Si       2.71410649      -0.00073305       2.71178271       0.00000000
Si      -2.71530882      -0.00153126       2.71123342       0.00000000
Si      -0.00073539      -2.71577106       2.71205735       0.00000000
Si       2.71413907       2.71497285      -0.00576749       0.00000000
Si      -2.71451061       2.71492398      -0.00470325       0.00000000
