10
Lattice="16.28999089631971 0.0 0.0 0.0 16.28999089631971 0.0 0.0 0.0 34.33025523377368" Properties=species:S:1:pos:R:3:initial_magmoms:R:1 pbc="T T T"
Si       0.20414628      -1.01059902      -2.12253788       0.00000000
Si      -0.77318856      -1.47877362       1.69234521       0.00000000
Si       2.27664153      -0.26389800       0.67307936       0.00000000
Si      -1.89149706       1.50570099      -0.06337369       0.00000000
Si       2.13172569       1.47634641       2.26933413       0.00000000
Si       0.28996200      -3.35837898       0.79072921       0.00000000
Si      -0.39250755      -3.20495976      -1.47640778       0.00000000
Si      -3.20623038       0.37898685      -1.66642585       0.00000000
Si      -1.56393774      -0.02365308      -3.34421502       0.00000000
Si       2.52423324      -2.67297723       1.05067805       0.00000000
