10
Lattice="16.28999089631971 0.0 0.0 0.0 16.28999089631971 0.0 0.0 0.0 34.33025523377368" Properties=species:S:1:pos:R:3:initial_magmoms:R:1 pbc="T T T"
Si       1.57353255      -1.68132348       0.43839760       0.00000000
Si       1.22375367       1.94351103       0.56638087       0.00000000
Si      -0.50815026       0.21489768      -2.33528259       0.00000000
Si      -1.69052733      -0.07268598       1.79756750       0.00000000
Si       0.45981783       2.33188092      -2.72180715       0.00000000
Si       0.19100025       3.58143795      -0.72958699       0.00000000
Si       0.77467095      -3.66648804      -0.40296876       0.00000000
Si       3.19953519       2.05092729      -0.66974932       0.00000000
Si      -2.09733750       2.49280983       2.12720679       0.00000000
Si       3.48680934      -1.51747866      -0.93179231       0.00000000
