10
Lattice="16.28999089631971 0.0 0.0 0.0 16.28999089631971 0.0 0.0 0.0 34.33025523377368" Properties=species:S:1:pos:R:3:initial_magmoms:R:1 pbc="T T T"
Si      -1.34561916      -1.35730398       1.39239473       0.00000000
Si       1.36105623       1.36899531       1.39654870       0.00000000
Si       1.73792213      -1.09294497      -1.30525763       0.00000000
Si      -1.64581128       1.22666958      -1.48262843       0.00000000
Si       3.49072613       0.74992644      -1.10789288       0.00000000
Si      -2.70752832      -2.69741469       0.02793798       0.00000000
Si       2.72911976       2.70995553       0.03388398       0.00000000
Si      -2.70396081       2.74105314       0.01759770       0.00000000
Si      -2.69998605       0.00149868       2.75280052       0.00000000
Si       0.01214967      -2.71267241       2.75259454       0.00000000
