10
Lattice="16.28999089631971 0.0 0.0 0.0 16.28999089631971 0.0 0.0 0.0 34.33025523377368" Properties=species:S:1:pos:R:3:initial_magmoms:R:1 pbc="T T T"
Si       1.36223496      -1.30038656      -1.36540427       0.00000000
Si       1.36190916       1.34011071       1.36445676       0.00000000
Si      -1.35179307      -1.37675408       1.36689421       0.00000000
Si      -1.56289518       1.19627164      -1.43488531       0.00000000
Si      -0.44533602      -1.96242845      -2.66176556       0.00000000
Si       2.70752832       2.69741469      -0.02793798       0.00000000
Si      -2.72710890       2.69313042      -0.00775864       0.00000000
Si       0.00754227       2.69891337       2.72486254       0.00000000
Si      -2.68392411      -2.74298009       0.00428785       0.00000000
Si      -2.70958086      -0.01629979       2.72475955       0.00000000
