10
Lattice="16.28999089631971 0.0 0.0 0.0 16.28999089631971 0.0 0.0 0.0 34.33025523377368" Properties=species:S:1:pos:R:3:initial_magmoms:R:1 pbc="T T T"
Si      -1.35729909      -1.35684446       1.35745338       0.00000000
Si       1.35790182      -1.35764267      -1.35759070       0.00000000
Si      -1.35782037       1.35776742      -1.35762503       0.00000000
Si       1.35839052       1.35847441       1.35693843       0.00000000
Si       2.71094922       0.00226282       2.71645162       0.00000000
Si      -0.00081450      -2.71298696      -2.71597100       0.00000000
Si       2.71457582      -2.71453451      -0.00006866       0.00000000
Si       2.71405794       0.00132874      -2.71507841       0.00000000
Si      -2.71471221      -2.71468112      -0.00054928       0.00000000
Si      -2.71454931       2.71484823      -0.00010299       0.00000000
