10
Lattice="16.28999089631971 0.0 0.0 0.0 16.28999089631971 0.0 0.0 0.0 34.33025523377368" Properties=species:S:1:pos:R:3:initial_magmoms:R:1 pbc="T T T"
Si       1.35855342      -1.35611318      -1.36181333       0.00000000
Si      -1.35739683       1.36054080      -1.36098940       0.00000000
Si       1.37178090       1.34350146       1.36857639       0.00000000
Si      -1.36474362      -1.34736871       1.38048899       0.00000000
Si       0.02026476       2.70832653       2.70889896       0.00000000
Si       2.71111212      -2.71232477      -0.00230013       0.00000000
Si      -2.71236645      -2.71564793      -0.00127022       0.00000000
Si      -2.71443528       2.71464705      -0.00611079       0.00000000
Si       2.71791989       2.71402803      -0.00205982       0.00000000
Si       2.71504584       0.00091224      -2.71796216       0.00000000
