10
Lattice="16.28999089631971 0.0 0.0 0.0 16.28999089631971 0.0 0.0 0.0 34.33025523377368" Properties=species:S:1:pos:R:3:initial_magmoms:R:1 pbc="T T T"
Si       0.49536261       1.02587904       2.00554030       0.00000000
Si      -1.95962184      -1.38222442      -0.05647330       0.00000000
Si       1.74143358      -1.73624426       0.03669906       0.00000000
Si      -0.10334376       2.28905451      -1.46054719       0.00000000
Si      -0.65981016      -2.94007526      -1.65554315       0.00000000
Si      -3.24804681       0.08219934      -1.34705131       0.00000000
Si      -1.71900225       1.06650630      -2.88954487       0.00000000
Si       0.93379167      -1.80562337      -3.00297209       0.00000000
Si       2.75314032       1.76870304       1.76667025       0.00000000
Si      -0.63700416       3.06756990       2.09164063       0.00000000
