10
Lattice="16.28999089631971 0.0 0.0 0.0 16.28999089631971 0.0 0.0 0.0 34.33025523377368" Properties=species:S:1:pos:R:3:initial_magmoms:R:1 pbc="T T T"
Si      -0.49536261      -1.02587904      -2.00554030       0.00000000
Si      -1.13236677       2.04169086       0.08610033       0.00000000
Si       2.25777771       0.74282400      -0.23887005       0.00000000
Si      -0.50604885      -1.19696639       2.01329894       0.00000000
Si      -2.87935524      -1.06183107       1.64246332       0.00000000
Si      -3.30142914       1.03716801       0.49751434       0.00000000
Si       2.32762923       2.09590398       1.68266407       0.00000000
Si       1.24607097      -2.76212330      -1.96884124       0.00000000
Si       0.16583220       3.17417166       1.72904427       0.00000000
Si      -0.67712643       3.14050023      -1.89777757       0.00000000
