10
Lattice="16.28999089631971 0.0 0.0 0.0 16.28999089631971 0.0 0.0 0.0 34.33025523377368" Properties=species:S:1:pos:R:3:initial_magmoms:R:1 pbc="T T T"
Si       1.35768902       1.35702216      -1.35704142       0.00000000
Si      -1.35749457      -1.35832536      -1.35724740       0.00000000
Si      -1.35865116       1.35602847       1.36311788       0.00000000
Si       1.35995291      -1.35944937       1.35947887       0.00000000
Si      -0.00003258      -2.71389771      -2.71391118       0.00000000
Si      -2.71536381      -2.71293660       0.00054928       0.00000000
Si       2.71397494      -0.00097740      -2.71439181       0.00000000
Si       0.00040725       2.71410948      -2.71466645       0.00000000
Si      -2.71489140      -0.00076563      -2.71470078       0.00000000
Si      -2.71604799       2.71471221       0.00061794       0.00000000
