10
Lattice="16.28999089631971 0.0 0.0 0.0 16.28999089631971 0.0 0.0 0.0 34.33025523377368" Properties=species:S:1:pos:R:3:initial_magmoms:R:1 pbc="T T T"
Si      -1.34439741      -1.35112518      -1.36558966       0.00000000
Si       1.36935369       1.36373364      -1.35789967       0.00000000
Si       1.39030263      -1.35744570       1.34942010       0.00000000
Si      -1.31623200       1.44625878       1.38783567       0.00000000
Si       2.23099695       0.60110100       2.50542343       0.00000000
Si       0.55566819       2.35457289       2.64034141       0.00000000
Si      -2.69461035      -2.69625564       0.00384499       0.00000000
Si      -2.70168021       0.00622278      -2.71985032       0.00000000
Si       0.01264104      -2.70523143      -2.72046827       0.00000000
Si      -2.70596448       2.73077415       0.00192250       0.00000000
