10
Lattice="16.28999089631971 0.0 0.0 0.0 16.28999089631971 0.0 0.0 0.0 34.33025523377368" Properties=species:S:1:pos:R:3:initial_magmoms:R:1 pbc="T T T"
Si       0.97564068       2.14523010      -0.33351862       0.00000000
Si      -1.29819897      -1.13248080      -1.64294394       0.00000000
Si      -1.11490389       0.05103657       2.12147364       0.00000000
Si       2.16179703      -1.07826768      -0.04638020       0.00000000
Si       0.58867173       1.10351718       3.35420513       0.00000000
Si      -0.16583220      -3.17417166      -1.72904427       0.00000000
Si       1.68573807       2.63627586       1.91120071       0.00000000
Si       2.23006842      -2.26484757       1.93900823       0.00000000
Si      -0.84295863      -0.03367143      -3.62682184       0.00000000
Si       2.09194551      -2.43134766      -1.96791432       0.00000000
