10
Lattice="16.28999089631971 0.0 0.0 0.0 16.28999089631971 0.0 0.0 0.0 34.33025523377368" Properties=species:S:1:pos:R:3:initial_magmoms:R:1 pbc="T T T"
Si       0.06827139      -1.18657989       1.98538843       0.00000000
Si      -0.06985152      -1.35307998      -1.92153412       0.00000000
Si      -2.16179703       1.07826768       0.04638020       0.00000000
Si       2.07024627       1.22653926       0.36115449       0.00000000
Si       1.19136982       0.32296554      -3.20383853       0.00000000
Si      -1.18615635       3.22349778      -0.28713842       0.00000000
Si       0.23713353       0.61142886       3.45877515       0.00000000
Si      -2.32762923      -2.09590398      -1.68266407       0.00000000
Si       2.46186927       2.06931870      -1.80549779       0.00000000
Si       2.25478102      -2.02481442       2.14296439       0.00000000
