10
Lattice="16.28999089631971 0.0 0.0 0.0 16.28999089631971 0.0 0.0 0.0 34.33025523377368" Properties=species:S:1:pos:R:3:initial_magmoms:R:1 pbc="T T T"
Si      -0.20841426       0.47399013       2.28969198       0.00000000
Si      -1.70357562      -1.05248061      -1.23273149       0.00000000
Si       1.09706634       1.53275868      -1.44300442       0.00000000
Si       1.81025883      -1.57035600       0.05818982       0.00000000
Si       3.25066203       0.38232630      -0.93402378       0.00000000
Si      -0.33897861      -1.72763595       3.06490391       0.00000000
Si       2.09437272       0.08208531       2.87159013       0.00000000
Si      -0.58867173      -1.10351718      -3.35420513       0.00000000
Si       1.80931401      -2.19743955       2.33057934       0.00000000
Si      -2.02419540      -3.16026000      -0.15403994       0.00000000
