10
Lattice="16.28999089631971 0.0 0.0 0.0 16.28999089631971 0.0 0.0 0.0 34.33025523377368" Properties=species:S:1:pos:R:3:initial_magmoms:R:1 pbc="T T T"
Si      -0.13056435      -2.20162608       0.77521193       0.00000000
Si       0.20841426      -0.47399013      -2.28969198       0.00000000
Si      -1.36787130       1.51840719       1.17907327       0.00000000
Si       2.30278698      -0.39190482       0.58189815       0.00000000
Si       2.01772827      -2.67142968       0.04088736       0.00000000
Si       2.01867309      -2.04434613      -2.23150217       0.00000000
Si      -0.76396842       3.56402394       0.24580476       0.00000000
Si      -1.98974205      -3.13185024      -0.13354477       0.00000000
Si      -0.76753593       1.14424218       3.49506225       0.00000000
Si      -0.42451740      -2.36550348       3.08306462       0.00000000
