10
Lattice="16.28999089631971 0.0 0.0 0.0 16.28999089631971 0.0 0.0 0.0 34.33025523377368" Properties=species:S:1:pos:R:3:initial_magmoms:R:1 pbc="T T T"
Si       0.96650592       2.03230782       0.46469459       0.00000000
Si      -0.38143035      -0.10033011      -2.27558224       0.00000000
Si       1.78778582      -1.29622788       0.68451134       0.00000000
Si      -1.97978886      -0.30758778       1.24701289       0.00000000
Si       0.52353032       1.51273827       2.79125729       0.00000000
Si       1.99455479      -0.47407158       2.89943199       0.00000000
Si      -0.73961487       3.58482627       0.10875831       0.00000000
Si       0.96799971      -3.46761972       0.79502050       0.00000000
Si      -3.10873473      -2.07392877       0.22558423       0.00000000
Si      -0.66648906      -2.37985497      -2.81659303       0.00000000
