10
Lattice="16.28999089631971 0.0 0.0 0.0 16.28999089631971 0.0 0.0 0.0 34.33025523377368" Properties=species:S:1:pos:R:3:initial_magmoms:R:1 pbc="T T T"
Si      -1.12894587      -1.76634099      -1.02142865       0.00000000
Si       1.97978886       0.30758778      -1.24701289       0.00000000
Si      -1.47196440       1.74340467      -0.60943103       0.00000000
Si       0.72205425       0.19220571       2.32704332       0.00000000
Si       2.50331918       1.82032605       1.54424440       0.00000000
Si      -3.30020739      -1.19368233      -0.40894223       0.00000000
Si      -0.83499282      -1.60246359      -3.32928135       0.00000000
Si      -0.67310280       3.72856923       0.23193533       0.00000000
Si      -3.66707448       1.08507690      -0.15235776       0.00000000
Si       2.94629478       2.33989560      -0.78231829       0.00000000
