10
Lattice="16.28999089631971 0.0 0.0 0.0 16.28999089631971 0.0 0.0 0.0 34.33025523377368" Properties=species:S:1:pos:R:3:initial_magmoms:R:1 pbc="T T T"
Si       1.52627526      -1.75099581       0.45116847       0.00000000
Si       1.15975026       2.00409354       0.74458932       0.00000000
Si      -2.11299219      -0.69335127       1.01140421       0.00000000
Si      -0.75504150      -0.16084746      -2.50264267       0.00000000
Si       1.62968418       1.07271279       2.93860283       0.00000000
Si       2.23637265      -1.25995005       2.69588779       0.00000000
Si       3.30297669      -1.46253249      -1.08596957       0.00000000
Si      -2.26373985       1.63921383      -2.53868946       0.00000000
Si      -3.68119791       0.47881197      -0.86182721       0.00000000
Si      -3.06968760       1.27752696       1.86574742       0.00000000
