10
Lattice="16.28999089631971 0.0 0.0 0.0 16.28999089631971 0.0 0.0 0.0 34.33025523377368" Properties=species:S:1:pos:R:3:initial_magmoms:R:1 pbc="T T T"
Si       2.14185874       0.70234335       0.60338890       0.00000000
Si      -1.78263099       0.73679670       1.45423042       0.00000000
Si       0.60668847      -2.33266284      -0.24271504       0.00000000
Si      -0.46993392       0.93138075      -2.19401351       0.00000000
Si      -1.62968418      -1.07271279      -2.93860283       0.00000000
Si       1.99176201       3.07056726       0.40568085       0.00000000
Si       3.53041508      -0.40293315      -1.07402264       0.00000000
Si      -0.10340892      -2.82370860      -2.48743436       0.00000000
Si      -2.03022270       3.14587593       1.07663174       0.00000000
Si       2.67012715       0.38781603       2.90688166       0.00000000
