10
Lattice="16.28999089631971 0.0 0.0 0.0 16.28999089631971 0.0 0.0 0.0 34.33025523377368" Properties=species:S:1:pos:R:3:initial_magmoms:R:1 pbc="T T T"
Si      -2.21236119      -0.46116990      -0.56318815       0.00000000
Si       0.49620969      -0.73194228       2.15724578       0.00000000
Si      -0.28183329       2.35103796       0.14813513       0.00000000
Si       1.92052651      -0.24594642      -1.39209263       0.00000000
Si       1.62042887       1.11433374       2.95339918       0.00000000
Si       3.02932817       1.77295473      -0.72931235       0.00000000
Si       1.26594642       3.07325511      -1.51914897       0.00000000
Si      -3.49874991       1.00043406       0.75375551       0.00000000
Si       0.20893554       2.83646367       2.41928877       0.00000000
Si      -2.81626407      -2.50678665       0.37008036       0.00000000
