10
Lattice="16.28999089631971 0.0 0.0 0.0 16.28999089631971 0.0 0.0 0.0 34.33025523377368" Properties=species:S:1:pos:R:3:initial_magmoms:R:1 pbc="T T T"
Si       1.04490576      -0.18096561       2.08456859       0.00000000
Si       1.61771103       0.73050780      -1.60669117       0.00000000
Si      -0.86579721      -2.21426712      -0.28590253       0.00000000
Si      -1.74143358       1.73624426      -0.03669906       0.00000000
Si      -0.80764191      -0.06937911      -3.03967116       0.00000000
Si      -2.40124374      -1.20383100      -1.69224222       0.00000000
Si       2.46399512       1.70594486       1.99352471       0.00000000
Si      -1.24607097       2.76212330       1.96884124       0.00000000
Si      -3.70105542       0.35401984      -0.09317236       0.00000000
Si       3.54855074       1.13935096       0.06210347       0.00000000
