10
Lattice="16.28999089631971 0.0 0.0 0.0 16.28999089631971 0.0 0.0 0.0 34.33025523377368" Properties=species:S:1:pos:R:3:initial_magmoms:R:1 pbc="T T T"
Si       1.33534084      -1.90956267       0.34446997       0.00000000
Si       1.15480203       2.09906424       0.05235367       0.00000000
Si      -1.90707030      -0.41229990       1.47136123       0.00000000
Si       2.11653919       2.09302065       2.20760830       0.00000000
Si       2.09327870      -1.74661380       2.59135210       0.00000000
Si      -3.35427390       1.44617733       1.04614645       0.00000000
Si      -2.30174442       1.82680947      -2.47232904       0.00000000
Si      -0.39104145       3.86011098      -0.10185792       0.00000000
Si       0.23615613      -3.87892593      -0.35919766       0.00000000
Si      -0.97692759       0.36281088      -3.81467710       0.00000000
