10
Lattice="16.28999089631971 0.0 0.0 0.0 16.28999089631971 0.0 0.0 0.0 34.33025523377368" Properties=species:S:1:pos:R:3:initial_magmoms:R:1 pbc="T T T"
Si      -0.89906139       2.26258326       0.13471200       0.00000000
Si      -2.10898159      -0.92667294       0.79968941       0.00000000
Si      -0.01467729      -0.35357445      -2.51441796       0.00000000
Si       1.90697256       0.85599063       2.15171861       0.00000000
Si      -1.78127892       1.32571278      -2.56062651       0.00000000
Si       0.83810421      -0.60936003       3.60502212       0.00000000
Si       2.86567164       2.41259787       0.67960211       0.00000000
Si       3.59293869      -0.55509804       1.16407095       0.00000000
Si       0.63964314       3.70592613       1.44235215       0.00000000
Si      -2.88112108       2.48533272       1.48457839       0.00000000
