10
Lattice="16.28999089631971 0.0 0.0 0.0 16.28999089631971 0.0 0.0 0.0 34.33025523377368" Properties=species:S:1:pos:R:3:initial_magmoms:R:1 pbc="T T T"
Si       1.10635164      -1.81718208       1.04786297       0.00000000
Si      -1.76511924      -0.04108338       1.58863345       0.00000000
Si       1.23272946       2.02398363       0.16636451       0.00000000
Si      -0.51675138      -0.42894828      -2.63309772       0.00000000
Si       1.74692331       0.41995620      -3.04839105       0.00000000
Si      -1.17882585      -2.79596673      -1.97539832       0.00000000
Si       2.30773914      -2.74569579      -0.73810090       0.00000000
Si      -0.52277868       3.67412805       0.05578670       0.00000000
Si      -2.06479171       1.47437532      -2.78391061       0.00000000
Si      -2.58490535      -2.21247522       1.69914260       0.00000000
