10
Lattice="16.28999089631971 0.0 0.0 0.0 16.28999089631971 0.0 0.0 0.0 34.33025523377368" Properties=species:S:1:pos:R:3:initial_magmoms:R:1 pbc="T T T"
Si       1.34463547       1.36837629       1.37333800       0.00000000
Si      -1.28428938       1.33620354      -1.46072228       0.00000000
Si      -1.36629324      -1.35166275       1.37790393       0.00000000
Si       1.56260870      -1.21898070      -1.41475404       0.00000000
Si      -2.72831643      -2.67846696      -0.00053212       0.00000000
Si       2.70476414      -2.70956457       0.01575416       0.00000000
Si      -2.71225449       2.71808424      -0.01712737       0.00000000
Si       2.70349352       0.01272249       2.73250789       0.00000000
Si      -0.01064556      -2.70225036       2.73827538       0.00000000
Si       2.69624447       2.74431114      -0.00324764       0.00000000
