10
Lattice="16.28999089631971 0.0 0.0 0.0 16.28999089631971 0.0 0.0 0.0 34.33025523377368" Properties=species:S:1:pos:R:3:initial_magmoms:R:1 pbc="T T T"
Si       1.35593073       1.35637056       1.35937588       0.00000000
Si      -1.35965462      -1.35867722       1.35961619       0.00000000
Si       1.36524861      -1.36553694      -1.34952309       0.00000000
Si      -1.36868254       1.36666584      -1.35388303       0.00000000
Si      -0.00061902       2.70762606      -2.71654775       0.00000000
Si       2.71340901      -2.71505404       0.00477191       0.00000000
Si       2.71363707       2.71570590       0.00367334       0.00000000
Si       2.71327869      -0.00114030       2.71720689       0.00000000
Si      -2.71602871       2.71494027       0.00597347       0.00000000
Si      -0.00192222       2.71420722       2.71775617       0.00000000
