10
Lattice="16.28999089631971 0.0 0.0 0.0 16.28999089631971 0.0 0.0 0.0 34.33025523377368" Properties=species:S:1:pos:R:3:initial_magmoms:R:1 pbc="T T T"
Si      -1.44393975       1.25542143      -1.40465751       0.00000000
Si       1.25846766      -1.48913406      -1.39604061       0.00000000
Si      -1.95138954      -0.89375085       1.09297295       0.00000000
Si       1.75594471       0.87322545       1.50061063       0.00000000
Si       2.63298202      -2.66836716       0.19070467       0.00000000
Si       2.74554592       2.60001432       0.14504541       0.00000000
Si      -0.09903890       2.58230709      -2.77611764       0.00000000
Si       2.61995002      -0.13113450      -2.77422948       0.00000000
Si      -2.77644546       2.70295083       0.01369778       0.00000000
Si      -3.62671830       0.85972104       1.22789093       0.00000000
