10
Lattice="16.28999089631971 0.0 0.0 0.0 16.28999089631971 0.0 0.0 0.0 34.33025523377368" Properties=species:S:1:pos:R:3:initial_magmoms:R:1 pbc="T T T"
Si      -1.37877908       1.75459590      -0.95074262       0.00000000
Si       1.58250834      -1.50304572      -1.07718102       0.00000000
Si       0.99237051       1.45590246       1.72708745       0.00000000
Si      -2.14891001      -1.32556617       0.38954562       0.00000000
Si      -1.43565562      -1.30624623       2.78270905       0.00000000
Si      -0.62516133       0.86545512       3.36529381       0.00000000
Si      -1.75620047      -2.66313807      -1.71586145       0.00000000
Si       2.65137669      -0.03769506      -2.53048453       0.00000000
Si       1.03822686       3.58313211       0.62704246       0.00000000
Si       3.35715723      -1.70250048       0.46716637       0.00000000
