10
Lattice="16.28999089631971 0.0 0.0 0.0 16.28999089631971 0.0 0.0 0.0 34.33025523377368" Properties=species:S:1:pos:R:3:initial_magmoms:R:1 pbc="T T T"
Si      -0.96650592      -2.03230782      -0.46469459       0.00000000
Si      -1.70612079       1.55251845      -0.35593629       0.00000000
Si      -0.44297560      -0.51956955       2.32656270       0.00000000
Si       2.06362046       0.38667573      -1.31303001       0.00000000
Si       0.82127990      -3.32853570       0.21981675       0.00000000
Si      -0.58190161       3.39879447       0.44021711       0.00000000
Si       1.02804887      -2.50637940       2.43473739       0.00000000
Si       1.09451207       0.85711464       3.44988361       0.00000000
Si      -1.34793627      -2.13263793      -2.74027683       0.00000000
Si       2.89151084       1.69766235       1.82242262       0.00000000
