10
Lattice="16.28999089631971 0.0 0.0 0.0 16.28999089631971 0.0 0.0 0.0 34.33025523377368" Properties=species:S:1:pos:R:3:initial_magmoms:R:1 pbc="T T T"
Si       1.50342039      -1.81908801       0.26080709       0.00000000
Si       0.83157192       1.67938497       1.47671675       0.00000000
Si       0.01664838       0.74681505      -2.32632239       0.00000000
Si      -1.79699877      -0.84054771       1.62746099       0.00000000
Si      -0.82789038      -1.31098662      -3.13545262       0.00000000
Si       1.82263923       0.14638194       3.08550207       0.00000000
Si       3.28394997      -0.87148242       1.38498626       0.00000000
Si       2.77863417       2.48210730       0.11243165       0.00000000
Si      -2.89151084      -1.69766235      -1.82242262       0.00000000
Si       0.30112065      -3.54667509       1.38920888       0.00000000
