10
Lattice="16.28999089631971 0.0 0.0 0.0 16.28999089631971 0.0 0.0 0.0 34.33025523377368" Properties=species:S:1:pos:R:3:initial_magmoms:R:1 pbc="T T T"
Si       1.36177395      -1.35417141       1.36167600       0.00000000
Si      -1.35607579       1.36037235       1.36191632       0.00000000
Si       1.38177807       1.34384355      -1.36256173       0.00000000
Si      -1.35008402      -1.36399428      -1.38972384       0.00000000
Si       2.71363218      -2.71218726       0.00339870       0.00000000
Si      -2.71285093      -2.71340901       0.00243745       0.00000000
Si      -2.71384462       2.71574078       0.00171651       0.00000000
Si      -2.71223191       0.00140094       2.71940403       0.00000000
Si       0.00204765      -2.71324611       2.71926671       0.00000000
Si       0.00185869       2.71669700       2.71936970       0.00000000
