10
Lattice="16.28999089631971 0.0 0.0 0.0 16.28999089631971 0.0 0.0 0.0 34.33025523377368" Properties=species:S:1:pos:R:3:initial_magmoms:R:1 pbc="T T T"
Si      -1.64527112      -1.01965626       1.34423623       0.00000000
Si       1.28594726      -1.39266468      -1.42889468       0.00000000
Si       1.23563723       1.66614120       1.18817080       0.00000000
Si      -1.44290045       1.32603858      -1.44190586       0.00000000
Si      -0.48657971       3.38911725       1.36579564       0.00000000
Si      -2.76555071      -2.62192437      -0.02873444       0.00000000
Si       2.62858046      -0.02570562      -2.81546014       0.00000000
Si       2.75644067      -2.72486088       0.10261319       0.00000000
Si      -2.91193265       2.58923034      -0.06718435       0.00000000
Si      -0.09034175       2.69216685      -2.81666170       0.00000000
