10
Lattice="16.290000149 0.0 0.0 0.0 16.290000149 0.0 0.0 0.0 29.1751946751" Properties=species:S:1:pos:R:3:initial_magmoms:R:1 pbc="T T T"
Si      -1.34426710      -1.37582083       1.31375902       0.00000000
Si       1.30486159      -1.34526079      -1.43083907       0.00000000
Si       1.23137740       1.42878451       1.42824248       0.00000000
Si      -1.40054905       1.34255991      -1.35842624       0.00000000
Si       0.20333178      -2.69423570       2.50022666       0.00000000
Si       2.64080450       2.71174745       0.04247908       0.00000000
Si      -2.70857090      -0.00733050       2.65780188       0.00000000
Si      -0.29190051       2.74633113       2.61809444       0.00000000
Si       2.65992896       0.00889434      -2.76534165       0.00000000
Si      -0.06545322       2.70622514      -2.72779318       0.00000000
