10
Lattice="16.290000149 0.0 0.0 0.0 16.290000149 0.0 0.0 0.0 29.1751946751" Properties=species:S:1:pos:R:3:initial_magmoms:R:1 pbc="T T T"
H        0.45155880       1.26794845      -0.70472683       0.00000000
Si      -0.82132552       0.99193069       1.92798439       0.00000000
Si      -1.88533946      -0.70622038      -1.24271742       0.00000000
Si       2.00220392      -1.36876726      -0.10450555       0.00000000
H        0.97251301      -0.25280451      -2.52064929       0.00000000
H       -0.63514711      -2.65665467      -1.14252980       0.00000000
Si       3.16481146       0.68175280      -0.69343603       0.00000000
Si      -2.32130873       2.29948013       0.62452422       0.00000000
Si       0.81249634      -2.97465177      -1.51728517       0.00000000
Si       2.02220804       0.86951134      -2.71527702       0.00000000
