10
Lattice="16.290000149 0.0 0.0 0.0 16.290000149 0.0 0.0 0.0 29.1751946751" Properties=species:S:1:pos:R:3:initial_magmoms:R:1 pbc="T T T"
Si      -1.06267816      -1.15649227       1.71404269       0.00000000
Si       1.84775843       1.46761498       0.17239623       0.00000000
Si       0.86846878      -1.79478335      -1.27746507       0.00000000
Si      -1.57988566       1.31468446      -1.21896881       0.00000000
H        0.48951450       2.32257935       1.77892832       0.00000000
H       -1.20550888      -0.35575731       2.98873612       0.00000000
H        2.62932005       1.52352226       1.46456560       0.00000000
Si       1.93844486      -0.39837195      -2.88177985       0.00000000
Si      -3.26542827      -1.07302231       0.89649538       0.00000000
Si       3.36381987       0.61937839      -1.40945365       0.00000000
