10
Lattice="16.290000149 0.0 0.0 0.0 16.290000149 0.0 0.0 0.0 29.1751946751" Properties=species:S:1:pos:R:3:initial_magmoms:R:1 pbc="T T T"
Si      -1.38153862       1.45089004      -1.15530853       0.00000000
Si       1.52982649      -1.26390853      -1.21228769       0.00000000
Si       0.84341476       1.65540285       1.39994254       0.00000000
Si      -0.91368982      -1.72861337       1.28248321       0.00000000
H        0.24283503       2.96575743       0.95595443       0.00000000
Si       2.56207493      -2.09293922       0.74087489       0.00000000
Si       0.11837943      -2.65877237      -2.51201344       0.00000000
Si      -2.60812432       0.09012312      -2.60228149       0.00000000
Si       0.09293445       1.07393455       3.55526005       0.00000000
Si       0.73414144      -3.38603943       1.37841125       0.00000000
