10
Lattice="16.290000149 0.0 0.0 0.0 16.290000149 0.0 0.0 0.0 29.1751946751" Properties=species:S:1:pos:R:3:initial_magmoms:R:1 pbc="T T T"
Si      -1.37200897      -1.40613652      -1.31245780       0.00000000
Si      -1.34620561       1.27922113       1.46071447       0.00000000
Si       1.33964074      -1.33630129       1.42199899       0.00000000
Si       1.34138377       1.41823999      -1.36015341       0.00000000
Si       2.67074552      -0.02272455      -2.67480227       0.00000000
Si       0.05981688      -2.77772196      -2.59694243       0.00000000
Si      -2.68071500      -2.69565293       0.15845048       0.00000000
Si      -2.77941612       2.59905323       0.17782281       0.00000000
Si      -2.72093501      -0.04365720      -2.68896975       0.00000000
Si       2.68820840       2.75105523       0.02900014       0.00000000
