10
Lattice="16.290000149 0.0 0.0 0.0 16.290000149 0.0 0.0 0.0 29.1751946751" Properties=species:S:1:pos:R:3:initial_magmoms:R:1 pbc="T T T"
Si      -1.29913465      -1.29051173       1.47218908       0.00000000
Si      -1.45011037       1.38476404      -1.22660687       0.00000000
Si       1.36241843       1.39505932       1.31817322       0.00000000
Si       1.43213312      -1.30705260      -1.35211273       0.00000000
Si      -2.62383746      -2.62708800       0.13487401       0.00000000
Si      -0.12871443       2.71080263      -2.59194355       0.00000000
Si       0.08559225      -2.51984311      -2.83436141       0.00000000
Si       2.71118646      -2.68056839       0.03494605       0.00000000
Si       2.65638690       0.04180014       2.75000425       0.00000000
Si       0.01195917       2.72155403       2.72503029       0.00000000
