10
Lattice="16.290000149 0.0 0.0 0.0 16.290000149 0.0 0.0 0.0 29.1751946751" Properties=species:S:1:pos:R:3:initial_magmoms:R:1 pbc="T T T"
Si       1.32717889      -1.39054048      -1.36207314       0.00000000
Si       1.40196628       1.36798534       1.30990789       0.00000000
Si      -1.40942710      -1.28296294       1.38576340       0.00000000
Si      -1.34591239       1.33973848      -1.40277254       0.00000000
Si       0.01738143       2.72069066       2.62512567       0.00000000
Si      -2.64080450      -2.71174745      -0.04247908       0.00000000
Si       2.58712895      -2.77661424       0.07521365       0.00000000
Si       2.69301395      -0.02787219      -2.73660409       0.00000000
Si      -2.71562447       2.72689715      -0.09128918       0.00000000
Si       0.00838935       2.68724729      -2.77666163       0.00000000
