10
Lattice="16.290000149 0.0 0.0 0.0 16.290000149 0.0 0.0 0.0 29.1751946751" Properties=species:S:1:pos:R:3:initial_magmoms:R:1 pbc="T T T"
Si       1.37995849       1.31776327      -1.36361942       0.00000000
Si      -1.37350765      -1.32657616      -1.36361942       0.00000000
Si       1.35583300      -1.37029852       1.33914144       0.00000000
Si      -1.36923967       1.37912770       1.32227817       0.00000000
Si      -0.05325201       2.63759537      -2.64651108       0.00000000
Si       0.04544910      -2.65711079      -2.66588341       0.00000000
Si       2.72613152      -0.00869886       2.66672949       0.00000000
Si      -2.72968275       0.01681128       2.66597094       0.00000000
Si      -0.01495422       2.73235430       2.68309678       0.00000000
Si      -0.00037467      -2.72587088       2.69686747       0.00000000
