10
Lattice="16.290000149 0.0 0.0 0.0 16.290000149 0.0 0.0 0.0 29.1751946751" Properties=species:S:1:pos:R:3:initial_magmoms:R:1 pbc="T T T"
Si      -1.34079733       1.35531172       1.34634450       0.00000000
Si       1.39839877      -1.42403923       1.22646683       0.00000000
Si       1.39468465       1.24098850      -1.42024848       0.00000000
Si      -1.50237784      -1.29072187      -1.28391279       0.00000000
H        0.50994216       2.09059346      -2.30883738       0.00000000
Si       2.70677900       0.02287116       2.59748509       0.00000000
Si      -2.55630827       2.77141773      -0.10214236       0.00000000
Si       2.43447536      -0.24324228      -2.88708974       0.00000000
Si      -2.66238875      -0.04662198       2.69014259       0.00000000
Si       0.07218099      -2.80526835       2.60408160       0.00000000
