10
Lattice="16.290000149 0.0 0.0 0.0 16.290000149 0.0 0.0 0.0 29.1751946751" Properties=species:S:1:pos:R:3:initial_magmoms:R:1 pbc="T T T"
Si      -1.30209229       1.38088702      -1.37622311       0.00000000
Si       1.37489719       1.36241416       1.33648649       0.00000000
Si       1.39669484      -1.33764522      -1.34844832       0.00000000
Si      -1.38333052      -1.33243893       1.38538412       0.00000000
Si       0.08782183      -2.62862903       2.64969118       0.00000000
Si      -2.67564881      -0.00353493      -2.68560584       0.00000000
Si      -2.62588286       2.75105523      -0.00166299       0.00000000
Si       0.02653641      -2.71000442      -2.67874967       0.00000000
Si      -2.61275312       0.10212201       2.80493239       0.00000000
Si       2.72539847       0.02500515       2.70885848       0.00000000
