10
Lattice="16.290000149 0.0 0.0 0.0 16.290000149 0.0 0.0 0.0 29.1751946751" Properties=species:S:1:pos:R:3:initial_magmoms:R:1 pbc="T T T"
H       -0.17912484       1.38743723       0.61069517       0.00000000
Si       0.83342899      -1.24491276       1.71313826       0.00000000
Si       1.89441299       0.01749709      -1.34013339       0.00000000
Si      -1.90034255      -0.54944379      -1.28519650       0.00000000
Si       0.64106038       1.12467953      -2.94447735       0.00000000
Si      -2.63006939       1.64068157      -0.88348325       0.00000000
Si      -0.69300919       2.67009555      -1.78698067       0.00000000
Si       1.87323599       0.60833702       2.66593009       0.00000000
Si       2.33292350      -2.27079181      -1.03641962       0.00000000
Si      -0.99875620      -2.26818541       2.65449925       0.00000000
