10
Lattice="16.290000149 0.0 0.0 0.0 16.290000149 0.0 0.0 0.0 29.1751946751" Properties=species:S:1:pos:R:3:initial_magmoms:R:1 pbc="T T T"
Si       1.37109673      -1.34573320      -1.33867463       0.00000000
Si       1.37886706       1.33542163       1.34424709       0.00000000
Si      -1.35035956      -1.36487395       1.35620892       0.00000000
Si      -1.34570062       1.35913987      -1.36930859       0.00000000
Si       0.00047241       2.70205490       2.65567210       0.00000000
Si      -0.01446552      -2.69615792      -2.66369527       0.00000000
Si      -2.72155403      -0.00845451       2.68934027       0.00000000
Si       2.74165590       0.01267362      -2.67670741       0.00000000
Si      -2.69267186       0.00224802      -2.73176100       0.00000000
Si       2.73507474       2.69099399      -0.01347894       0.00000000
