10
Lattice="16.290000149 0.0 0.0 0.0 16.290000149 0.0 0.0 0.0 29.1751946751" Properties=species:S:1:pos:R:3:initial_magmoms:R:1 pbc="T T T"
Si      -1.36871839      -1.34873056      -1.33794525       0.00000000
Si      -1.36552555       1.34715043       1.35011131       0.00000000
Si       1.32512635      -1.38362374       1.35994335       0.00000000
Si       1.38511558       1.33164235      -1.36787900       0.00000000
Si       0.07402176      -2.68042341      -2.62072021       0.00000000
Si       2.69541021      -0.01459584       2.68478894       0.00000000
Si      -0.00690696       2.71262711       2.68102534       0.00000000
Si      -2.69467553       2.71396289      -0.02579087       0.00000000
Si       0.05535342       2.74058075      -2.67901225       0.00000000
Si      -2.72113049      -0.03052746       2.70643693       0.00000000
