10
Lattice="16.290000149 0.0 0.0 0.0 16.290000149 0.0 0.0 0.0 29.1751946751" Properties=species:S:1:pos:R:3:initial_magmoms:R:1 pbc="T T T"
Si      -1.32985045       1.31447269       1.41958620       0.00000000
Si      -1.42599403      -1.35948196      -1.27988486       0.00000000
Si       1.32913369      -1.39592269       1.36873675       0.00000000
Si       1.33522615       1.36439209      -1.40858423       0.00000000
Si       0.02013444      -2.55282221      -2.63712251       0.00000000
Si       2.63303417       2.64847221       0.09738680       0.00000000
Si      -2.60890380       2.68798849       0.03252742       0.00000000
Si      -2.74184160      -0.07599285       2.67629312       0.00000000
Si       2.66598884      -0.07094295       2.77388415       0.00000000
Si       2.71073747      -2.75286342       0.04380072       0.00000000
