10
Lattice="16.290000149 0.0 0.0 0.0 16.290000149 0.0 0.0 0.0 29.1751946751" Properties=species:S:1:pos:R:3:initial_magmoms:R:1 pbc="T T T"
Si       1.25011090      -1.37028223       1.41266876       0.00000000
Si      -1.28692630       1.44963082       1.32749470       0.00000000
Si       1.90796627       0.79001614      -1.12070092       0.00000000
Si      -1.83834281      -0.88080031      -1.18761423       0.00000000
H        0.69556672      -1.82687465      -1.92284372       0.00000000
Si       1.25136523       1.21318147      -3.25054848       0.00000000
Si       2.66984957       0.05940963       2.64782980       0.00000000
Si      -2.71404434       0.05882319       2.60861834       0.00000000
Si       2.74792755      -2.60597485       0.13239120       0.00000000
Si      -3.47091033       0.85519243      -1.27268968       0.00000000
