10
Lattice="16.290000149 0.0 0.0 0.0 16.290000149 0.0 0.0 0.0 29.1751946751" Properties=species:S:1:pos:R:3:initial_magmoms:R:1 pbc="T T T"
Si      -1.38285811       1.34592868       1.33424000       0.00000000
Si      -1.36581877      -1.33973848      -1.37202188       0.00000000
Si       1.34407162       1.37165059      -1.36306510       0.00000000
Si       1.33784884      -1.36624231       1.37706919       0.00000000
Si      -2.68034033       2.64834677      -0.12586179       0.00000000
Si       2.65770375      -2.70158249      -0.03194684       0.00000000
Si       0.00257382       2.70293456       2.66839248       0.00000000
Si      -2.73668745      -0.04103451       2.67638648       0.00000000
Si       2.73378620       0.01120752       2.68318430       0.00000000
Si      -0.01894527      -2.68727987      -2.73925903       0.00000000
