10
Lattice="16.290000149 0.0 0.0 0.0 16.290000149 0.0 0.0 0.0 29.1751946751" Properties=species:S:1:pos:R:3:initial_magmoms:R:1 pbc="T T T"
Si       1.41721372      -1.34281860       1.25435832       0.00000000
Si      -1.49781664       1.23569262       1.28027756       0.00000000
Si      -1.03980700      -1.85324979      -0.95279184       0.00000000
Si       0.86560174       1.72810675      -1.38215997       0.00000000
H       -2.05236083       0.77910021      -2.05523492       0.00000000
Si      -1.87323599      -0.60833702      -2.66593009       0.00000000
Si      -0.07807797       2.66538449       2.51543860       0.00000000
Si       2.64878660      -2.54363628      -0.34190994       0.00000000
Si      -0.83996128       3.39599099      -1.25309212       0.00000000
Si      -0.04334769      -2.77975983       2.46887499       0.00000000
