10
Lattice="16.290000149 0.0 0.0 0.0 16.290000149 0.0 0.0 0.0 29.1751946751" Properties=species:S:1:pos:R:3:initial_magmoms:R:1 pbc="T T T"
Si       1.38923565      -1.34900749       1.32980537       0.00000000
Si       1.37589414       1.34780203      -1.35081151       0.00000000
Si      -1.31389933      -1.36661698      -1.39451596       0.00000000
Si      -1.36960620       1.33981993       1.38089114       0.00000000
Si       0.02847003      -2.69879690       2.68303843       0.00000000
Si      -2.66192449      -2.71971326      -0.03655652       0.00000000
Si      -2.70136258       2.70601663       0.00831493       0.00000000
Si       0.03015768       2.70865887      -2.70649528       0.00000000
Si      -2.68231957      -0.00990432      -2.73552460       0.00000000
Si       2.70745504      -2.71195922      -0.06112203       0.00000000
