10
Lattice="16.290000149 0.0 0.0 0.0 16.290000149 0.0 0.0 0.0 29.1751946751" Properties=species:S:1:pos:R:3:initial_magmoms:R:1 pbc="T T T"
Si       1.24222654      -1.39481497       1.36560334       0.00000000
Si      -1.36940257       1.34848621       1.32539992       0.00000000
Si      -1.29253006      -1.43715268      -1.31230026       0.00000000
Si       1.45930708       1.29749851      -1.30130121       0.00000000
Si       2.68345172      -0.06698448       2.57649062       0.00000000
Si      -2.64774404      -0.07025877      -2.64867005       0.00000000
Si       0.09757710       2.62356968      -2.68321348       0.00000000
Si       0.00959481       2.69847110       2.62422124       0.00000000
Si      -2.60110577      -2.78310254       0.11136172       0.00000000
Si       0.13357800      -2.79858619      -2.61091735       0.00000000
