10
Lattice="16.290000149 0.0 0.0 0.0 16.290000149 0.0 0.0 0.0 29.1751946751" Properties=species:S:1:pos:R:3:initial_magmoms:R:1 pbc="T T T"
Si      -1.27905334       1.37351580      -1.38705878       0.00000000
Si       1.30135924       1.32725546       1.42557295       0.00000000
Si      -1.41199115      -1.39046554       1.25670692       0.00000000
Si       1.32985045      -1.31447269      -1.41958620       0.00000000
Si       2.64754856       2.65735514       0.07859506       0.00000000
Si      -0.04627989      -2.73839790       2.62881633       0.00000000
Si       2.65898414      -2.71039538      -0.05084945       0.00000000
Si      -0.09614358      -2.67395465      -2.69947106       0.00000000
Si      -2.71118646       2.68056839      -0.03494605       0.00000000
Si      -2.69340280      -0.04526991       2.71310347       0.00000000
