10
Lattice="16.290000149 0.0 0.0 0.0 16.290000149 0.0 0.0 0.0 29.1751946751" Properties=species:S:1:pos:R:3:initial_magmoms:R:1 pbc="T T T"
Si      -1.88524172      -1.34136748      -0.39459451       0.00000000
Si       0.52124742       1.25550778      -1.93174799       0.00000000
Si       1.93417688      -1.49100742       0.31348747       0.00000000
H       -0.90210763      -0.98323183       2.07114707       0.00000000
Si      -1.61735266       1.52812256       1.07930715       0.00000000
H       -2.79078654      -1.41858208       0.82300307       0.00000000
Si       0.19056042       2.85953034       1.68107472       0.00000000
Si      -2.78181075       0.07649784      -1.98242530       0.00000000
Si      -0.01736514      -1.83283679       2.95973597       0.00000000
Si       1.54981432      -0.36764901      -3.25230483       0.00000000
