10
Lattice="16.290000149 0.0 0.0 0.0 16.290000149 0.0 0.0 0.0 29.1751946751" Properties=species:S:1:pos:R:3:initial_magmoms:R:1 pbc="T T T"
Si       1.37479456      -1.34759678       1.33514443       0.00000000
Si       1.36458073       1.34742085      -1.35008213       0.00000000
Si      -1.34995231      -1.37010956      -1.35110327       0.00000000
Si      -1.35058762       1.34973403       1.37269291       0.00000000
Si       0.01972719      -2.70175191       2.66964701       0.00000000
Si       0.00171045       2.71320704      -2.68569337       0.00000000
Si      -2.73258236      -0.01085403      -2.67341061       0.00000000
Si      -2.71974584       2.69406629       0.00919019       0.00000000
Si       2.72445365       2.69105264       0.01330389       0.00000000
Si       2.72717408      -0.01511712      -2.69584634       0.00000000
