10
Lattice="16.290000149 0.0 0.0 0.0 16.290000149 0.0 0.0 0.0 29.1751946751" Properties=species:S:1:pos:R:3:initial_magmoms:R:1 pbc="T T T"
Si      -0.56430190       1.03549015       2.00879968       0.00000000
Si      -1.62507412      -1.68564035      -0.06625687       0.00000000
Si       2.19416528      -0.73339210      -0.46099725       0.00000000
Si       0.04380381       2.14768665      -0.97815675       0.00000000
Si       0.68017267       2.81999288       1.16957520       0.00000000
Si       1.90920431       0.16638606      -2.69902643       0.00000000
Si       1.92060731      -2.77257432       0.73509820       0.00000000
Si      -3.44509068      -0.22599117       0.09785360       0.00000000
Si      -0.21924711      -0.79594570      -3.38624815       0.00000000
Si      -2.79723738       1.53958420       1.68731821       0.00000000
