10
Lattice="16.290000149 0.0 0.0 0.0 16.290000149 0.0 0.0 0.0 29.1751946751" Properties=species:S:1:pos:R:3:initial_magmoms:R:1 pbc="T T T"
Si      -1.36458073      -1.34742085       1.35008213       0.00000000
Si      -1.36287028       1.36578619      -1.33561124       0.00000000
Si       1.35987292       1.34363179       1.36338602       0.00000000
Si       1.36259335      -1.36253797      -1.34576420       0.00000000
Si       0.01021383      -2.69501762       2.68522657       0.00000000
Si       2.71228502       0.02542869      -2.68099616       0.00000000
Si       0.00768888       2.72419301      -2.67364402       0.00000000
Si      -2.74843254       0.01536147      -2.66063188       0.00000000
Si      -0.00052128       2.69508278       2.71638568       0.00000000
Si      -2.71453304      -2.71753040      -0.00102113       0.00000000
