10
Lattice="16.290000149 0.0 0.0 0.0 16.290000149 0.0 0.0 0.0 29.1751946751" Properties=species:S:1:pos:R:3:initial_magmoms:R:1 pbc="T T T"
Si      -0.85278151      -0.91502560      -0.82443265       0.00000000
H        1.42457680       0.93828772       0.54102481       0.00000000
H        0.82176535      -0.73678042       1.63742863       0.00000000
Si       2.07642116       1.75311353      -0.53979945       0.00000000
Si      -1.10131804       2.76122019      -0.06640274       0.00000000
Si      -0.81635707       1.86144203       2.17162644       0.00000000
Si       0.57296818      -2.35993232      -1.95079939       0.00000000
Si      -2.14856957       0.37716237      -2.25133307       0.00000000
Si      -2.70269021      -1.73490131       0.32229838       0.00000000
Si       2.04353165      -1.21363759       2.40648676       0.00000000
