10
Lattice="16.290000149 0.0 0.0 0.0 16.290000149 0.0 0.0 0.0 29.1751946751" Properties=species:S:1:pos:R:3:initial_magmoms:R:1 pbc="T T T"
Si       1.34618932       1.28791999      -1.37336394       0.00000000
Si      -1.52982649       1.26390853       1.21228769       0.00000000
Si       1.03224844      -0.82903069       1.95316258       0.00000000
Si      -1.41144706      -1.39486384      -1.29972575       0.00000000
Si      -0.79568506      -2.12213090       2.59069894       0.00000000
Si      -2.44351631      -0.46470483       2.49477090       0.00000000
Si       2.60227865       2.60319415       0.09645319       0.00000000
Si      -0.08047260       2.65329405      -2.66731300       0.00000000
Si       2.71049312      -0.08057034      -2.71740681       0.00000000
Si      -0.07527609      -2.72697860      -2.70920858       0.00000000
