10
Lattice="16.290000149 0.0 0.0 0.0 16.290000149 0.0 0.0 0.0 29.1751946751" Properties=species:S:1:pos:R:3:initial_magmoms:R:1 pbc="T T T"
Si      -2.05858361       0.60549279      -0.88990179       0.00000000
Si       1.02856690      -1.62315679      -1.32055684       0.00000000
Si      -0.52124742      -1.25550778       1.93174799       0.00000000
Si       1.50842143       1.85925428       0.07016634       0.00000000
Si       2.31765977      -0.17703207      -2.59638810       0.00000000
Si      -3.30305817      -1.17900994      -0.05067731       0.00000000
Si       2.55832823      -2.61715631       0.18581681       0.00000000
Si      -2.13860009       0.27261478       3.01105514       0.00000000
Si       0.77125006       3.19897647      -1.70777002       0.00000000
Si       0.87895954       2.93454090       2.11406378       0.00000000
