10
Lattice="16.290000149 0.0 0.0 0.0 16.290000149 0.0 0.0 0.0 29.1751946751" Properties=species:S:1:pos:R:3:initial_magmoms:R:1 pbc="T T T"
Si       0.97078627      -1.44355465      -1.52525000       0.00000000
Si      -1.68782321       0.93418264      -1.31072480       0.00000000
Si      -1.26679186      -1.47965329       1.32671280       0.00000000
Si       1.50237784       1.29072187       1.28391279       0.00000000
H       -1.15230574       1.19076643      -2.69765520       0.00000000
Si      -0.91647541      -2.95116159      -1.83981695       0.00000000
Si      -2.63446769      -2.50804100      -0.31229128       0.00000000
Si      -2.57219102      -0.05247009       2.62954367       0.00000000
H        0.12364110       2.94596508      -2.27306859       0.00000000
Si       0.16158051       2.64603359       2.63025729       0.00000000
