10
Lattice="16.290000149 0.0 0.0 0.0 16.290000149 0.0 0.0 0.0 29.1751946751" Properties=species:S:1:pos:R:3:initial_magmoms:R:1 pbc="T T T"
Si       2.24634215      -0.50502258       0.27661002       0.00000000
Si      -1.57361401      -1.68578696      -0.44378389       0.00000000
Si      -0.72918928       0.63315973       2.18011963       0.00000000
Si      -0.07912053       1.46010529      -1.93201057       0.00000000
H        0.26340930      -1.10608938      -2.82141638       0.00000000
Si      -2.82696663      -0.57860452      -2.04812784       0.00000000
Si      -1.30240180       3.31172445      -1.25820945       0.00000000
Si       1.30958569      -2.22000448      -2.83982592       0.00000000
Si       3.17756164      -1.32106688      -1.71786464       0.00000000
H        0.00456120       3.86493286      -0.35097759       0.00000000
