10
Lattice="16.290000149 0.0 0.0 0.0 16.290000149 0.0 0.0 0.0 29.1751946751" Properties=species:S:1:pos:R:3:initial_magmoms:R:1 pbc="T T T"
Si      -1.34682463      -1.33281523      -1.38915355       0.00000000
Si      -1.34361550       1.30321630       1.42407043       0.00000000
Si       1.30308598       1.35382933      -1.43429633       0.00000000
Si       1.34838847      -1.38468259       1.36210231       0.00000000
Si       2.69370791       2.64080450       0.00058350       0.00000000
Si      -2.68988627       2.64780920       0.05832121       0.00000000
Si       2.66459442      -0.10420713      -2.72036225       0.00000000
Si      -2.68820840      -2.75105523      -0.02900014       0.00000000
Si       0.01392795       2.65136042       2.79177438       0.00000000
Si       2.71271671      -0.05475069       2.74135964       0.00000000
