10
Lattice="16.290000149 0.0 0.0 0.0 16.290000149 0.0 0.0 0.0 29.1751946751" Properties=species:S:1:pos:R:3:initial_magmoms:R:1 pbc="T T T"
Si      -0.27966672       0.81684577       2.15470483       0.00000000
Si      -1.77005513      -0.99852814      -1.15635884       0.00000000
Si       0.91368982       1.72861337      -1.28248321       0.00000000
Si       1.64783125      -1.65742607       0.09592804       0.00000000
Si      -0.43540890      -2.30878172      -2.57870793       0.00000000
Si      -2.54787005       1.30434031       2.03342354       0.00000000
Si       2.44351631       0.46470483      -2.49477090       0.00000000
Si       3.47576475      -0.36432585      -0.54160831       0.00000000
Si       1.00662427       2.80254792       2.27277684       0.00000000
Si       2.10761651      -2.08174799       2.30863315       0.00000000
