10
Lattice="16.290000149 0.0 0.0 0.0 16.290000149 0.0 0.0 0.0 29.1751946751" Properties=species:S:1:pos:R:3:initial_magmoms:R:1 pbc="T T T"
Si       1.29780802       1.28408011       1.50597103       0.00000000
Si      -1.33522615      -1.36439209       1.40858423       0.00000000
Si       1.48159180      -1.29921580      -1.33989999       0.00000000
Si      -1.35711991       1.38669245      -1.39775440       0.00000000
Si      -0.00436572      -2.55234036      -2.71629815       0.00000000
Si      -2.60835482       2.72993654       0.08819895       0.00000000
Si       2.69710274      -2.71532181       0.10858687       0.00000000
Si       2.28641555       3.07155414       0.35373465       0.00000000
Si       2.36938052       2.37872414      -1.87567327       0.00000000
Si       0.16513173       2.76038255      -2.67772854       0.00000000
