10
Lattice="16.290000149 0.0 0.0 0.0 16.290000149 0.0 0.0 0.0 29.1751946751" Properties=species:S:1:pos:R:3:initial_magmoms:R:1 pbc="T T T"
Si      -1.33165864      -1.35492402      -1.38375031       0.00000000
Si       1.33175638      -1.36619670       1.37257621       0.00000000
Si       1.35159760       1.35084500      -1.37383074       0.00000000
Si      -1.37042884       1.34027279       1.36572004       0.00000000
Si      -2.69465924       2.70394129      -0.02733716       0.00000000
Si       0.00312768       2.72469475       2.67510277       0.00000000
Si       2.70191481       0.00616251       2.70287756       0.00000000
Si       2.70136258      -2.70601663      -0.00831493       0.00000000
Si      -2.69143382      -2.71913008      -0.04236238       0.00000000
Si      -2.69193881      -0.00222847      -2.73648738       0.00000000
