10
Lattice="16.290000149 0.0 0.0 0.0 16.290000149 0.0 0.0 0.0 29.1751946751" Properties=species:S:1:pos:R:3:initial_magmoms:R:1 pbc="T T T"
Si       1.17524206       0.53892207       1.05780503       0.00000000
Si      -1.30696300      -0.55320841      -0.90723185       0.00000000
Si      -0.08368173      -2.40482756      -1.58103297       0.00000000
Si      -0.36670419       1.80858098       2.25293771       0.00000000
Si       2.84539225       1.32137965      -0.38794256       0.00000000
Si      -3.09591453      -1.14072355       0.53031751       0.00000000
Si       2.31298454      -0.96480784       2.44079795       0.00000000
Si      -2.34173639       0.77473612      -2.51933641       0.00000000
Si      -1.83870119       3.01785285       0.79502405       0.00000000
H       -0.31350105       0.71373007      -3.65238427       0.00000000
