10
Lattice="16.290000149 0.0 0.0 0.0 16.290000149 0.0 0.0 0.0 29.1751946751" Properties=species:S:1:pos:R:3:initial_magmoms:R:1 pbc="T T T"
Si       1.27905334      -1.37351580       1.38705878       0.00000000
Si      -1.34654086      -1.21279051      -1.48224868       0.00000000
Si      -1.43213312       1.30705260       1.35211273       0.00000000
Si       1.33577513       1.40634015      -1.35291271       0.00000000
Si      -1.63205113       0.61270763      -3.05304116       0.00000000
Si      -0.29723712       2.59054171      -2.56636974       0.00000000
Si       2.60890380      -2.68798849      -0.03252742       0.00000000
Si      -2.82439769      -2.52085309      -0.10928153       0.00000000
Si      -0.06971468       2.70211192       2.67028595       0.00000000
Si       2.58041259      -0.04626034       2.81263173       0.00000000
