10
Lattice="16.290000149 0.0 0.0 0.0 16.290000149 0.0 0.0 0.0 29.1751946751" Properties=species:S:1:pos:R:3:initial_magmoms:R:1 pbc="T T T"
Si       1.31991355      -1.48943329      -1.20911926       0.00000000
Si       1.36032904       1.28251875       1.41078988       0.00000000
Si      -1.35001747      -1.39462549       1.31103989       0.00000000
Si      -1.38297214       1.32478967      -1.36545746       0.00000000
Si       2.69408909       2.62278177       0.08258914       0.00000000
Si      -2.69830820       2.64814530       0.03533700       0.00000000
Si      -2.67395465      -0.04273467       2.69584050       0.00000000
Si       0.03036456       2.70247245       2.69712421       0.00000000
Si       0.03473028      -2.75122412       2.65088153       0.00000000
Si      -2.68687262      -2.71960523      -0.09410751       0.00000000
