10
Lattice="16.290000149 0.0 0.0 0.0 16.290000149 0.0 0.0 0.0 29.1751946751" Properties=species:S:1:pos:R:3:initial_magmoms:R:1 pbc="T T T"
Si       0.73717138      -1.33972219       1.77793636       0.00000000
Si      -1.78245182       0.95175955       1.24242567       0.00000000
Si       1.39429369       1.83808217      -0.71808907       0.00000000
Si       0.11256390      -1.74050507      -1.80743249       0.00000000
H       -2.13548870      -0.30380850      -1.35086986       0.00000000
Si       2.87572260       0.55776961      -2.02656737       0.00000000
Si       2.73450458      -2.22977033       0.80599393       0.00000000
Si      -0.77125006      -3.19897647       1.70777002       0.00000000
Si      -2.78326056       0.55897507      -2.40920005       0.00000000
Si       1.46412892      -0.72565435      -3.44176854       0.00000000
