10
Lattice="16.290000149 0.0 0.0 0.0 16.290000149 0.0 0.0 0.0 29.1751946751" Properties=species:S:1:pos:R:3:initial_magmoms:R:1 pbc="T T T"
Si      -0.72972685       2.19012536       0.40171326       0.00000000
Si       1.90034255       0.54944379       1.28519650       0.00000000
Si      -1.61751556      -1.48781458       0.93748653       0.00000000
Si       0.73348984       0.34271554      -2.26104841       0.00000000
H        1.44873487      -2.16863885      -1.26920849       0.00000000
H        1.72121771       1.93688102       1.89589168       0.00000000
Si       2.54140292       1.67412332      -1.65928085       0.00000000
Si       1.20733336       3.21953934      -0.50178417       0.00000000
H       -0.43994403      -2.60398910      -2.51735250       0.00000000
Si      -0.40200462      -2.90392059       2.38597339       0.00000000
