10
Lattice="16.290000149 0.0 0.0 0.0 16.290000149 0.0 0.0 0.0 29.1751946751" Properties=species:S:1:pos:R:3:initial_magmoms:R:1 pbc="T T T"
Si       1.32996448      -1.41995370      -1.28633433       0.00000000
Si      -1.34873056      -1.37363634       1.33730340       0.00000000
Si       1.38556225       1.35042472       1.32502064       0.00000000
Si      -1.30043071       1.34941474      -1.41858549       0.00000000
Si       2.66372453      -0.07969068      -2.61453507       0.00000000
Si       0.01446552       2.69615792       2.66369527       0.00000000
Si      -2.67820634       2.69840594      -0.06806573       0.00000000
Si      -2.70878267      -0.01627371       2.67679494       0.00000000
Si      -2.72867276      -0.05432715      -2.66178722       0.00000000
Si       0.03389949      -2.73289188       2.65961075       0.00000000
