10
Lattice="16.290000149 0.0 0.0 0.0 16.290000149 0.0 0.0 0.0 29.1751946751" Properties=species:S:1:pos:R:3:initial_magmoms:R:1 pbc="T T T"
Si       2.20424879      -0.38165841       0.80205528       0.00000000
Si       0.05113431       2.29604294       0.66251032       0.00000000
Si       0.14242347      -0.42174810      -2.35613037       0.00000000
Si      -1.52225164      -1.37369010       1.27997414       0.00000000
H       -2.16635825      -0.22014306      -1.43929988       0.00000000
H       -0.86912038       2.45403965      -1.86339051       0.00000000
Si      -0.72628966       1.65330470      -3.13808394       0.00000000
Si       0.48871629       2.04716432       2.94638774       0.00000000
Si       2.12128382       0.31117158       3.03146319       0.00000000
Si       2.44218053      -0.36028593      -2.80761651       0.00000000
