10
Lattice="16.290000149 0.0 0.0 0.0 16.290000149 0.0 0.0 0.0 29.1751946751" Properties=species:S:1:pos:R:3:initial_magmoms:R:1 pbc="T T T"
Si      -1.14930838      -1.63320283       1.19063969       0.00000000
Si       1.46487989      -1.21342582      -1.33709917       0.00000000
Si      -1.76927321       1.15424425      -1.03437735       0.00000000
Si       1.45834760       1.38293956       1.34768977       0.00000000
H       -2.04537242      -0.88878241       2.17045943       0.00000000
Si      -3.38097324       1.33009480       0.64617221       0.00000000
Si       2.63736731       0.31490199      -2.65923147       0.00000000
Si       2.90471880      -2.40065732       0.10511823       0.00000000
Si      -0.93628405       3.08416618      -2.05358360       0.00000000
Si       0.25120842      -2.81308755       2.64236821       0.00000000
