10
Lattice="16.290000149 0.0 0.0 0.0 16.290000149 0.0 0.0 0.0 29.1751946751" Properties=species:S:1:pos:R:3:initial_magmoms:R:1 pbc="T T T"
Si      -1.36005211       1.35736263       1.33949154       0.00000000
Si       1.34873056       1.37363634      -1.33730340       0.00000000
Si       1.38263005      -1.35925553       1.32230735       0.00000000
Si      -1.35558865      -1.37157077      -1.33858711       0.00000000
Si       2.67869504      -0.04631736      -2.62363773       0.00000000
Si       0.00568521      -2.71477902       2.65456344       0.00000000
Si      -2.72613153      -0.01079050      -2.65211272       0.00000000
Si       0.01283652       2.70492032       2.68260080       0.00000000
Si       2.73258236       0.01085403       2.67341061       0.00000000
Si      -2.70441695       0.00226268       2.70538663       0.00000000
