10
Lattice="16.290000149 0.0 0.0 0.0 16.290000149 0.0 0.0 0.0 29.1751946751" Properties=species:S:1:pos:R:3:initial_magmoms:R:1 pbc="T T T"
Si       1.83977633      -0.86900635       1.13646136       0.00000000
Si      -0.86846878       1.79478335       1.27746507       0.00000000
Si       1.06997608       1.39641139      -1.60431478       0.00000000
Si      -1.00035262      -2.13858380      -0.41064087       0.00000000
H       -1.88766893      -0.55236133      -1.90493599       0.00000000
Si       2.49535109       2.41416173      -0.13198858       0.00000000
Si      -0.01260846      -2.52496306      -2.56050261       0.00000000
Si      -1.93114694       0.63829108       2.99150776       0.00000000
Si       0.97928965       3.26239833       1.44986130       0.00000000
Si       3.59000652       0.63403939       0.79248581       0.00000000
