10
Lattice="16.290000149 0.0 0.0 0.0 16.290000149 0.0 0.0 0.0 29.1751946751" Properties=species:S:1:pos:R:3:initial_magmoms:R:1 pbc="T T T"
Si      -1.37863900      -1.36392913      -1.30480223       0.00000000
Si      -1.38522016       1.31439124       1.35842624       0.00000000
Si       1.32914998      -1.36681246       1.37590218       0.00000000
Si       1.32475168       1.38693061      -1.38305010       0.00000000
Si      -2.69560406       0.02757897      -2.64659861       0.00000000
Si      -0.01492164       2.67599090       2.68601430       0.00000000
Si       2.68776857      -0.00133578       2.70681621       0.00000000
Si      -0.05129721      -2.72275949      -2.67116412       0.00000000
Si       2.75002896       0.02661786      -2.65322138       0.00000000
Si       2.69467553      -2.71396289       0.02579087       0.00000000
