10
Lattice="16.290000149 0.0 0.0 0.0 16.290000149 0.0 0.0 0.0 29.1751946751" Properties=species:S:1:pos:R:3:initial_magmoms:R:1 pbc="T T T"
Si       1.53819955       0.70819147       1.61487620       0.00000000
Si      -1.20964654      -1.33051834       1.49875893       0.00000000
Si       0.62946190      -1.07528662      -2.04389744       0.00000000
Si      -1.49745826       1.86764852      -0.36025530       0.00000000
H        1.88072939      -1.85800321       0.72547039       0.00000000
H        3.09790191       0.30234240      -0.99744156       0.00000000
Si      -1.89016130       1.21619512      -2.57940814       0.00000000
Si       0.31491828       2.55981062       2.28867732       0.00000000
Si       3.17322687       1.37386603       0.06438965       0.00000000
Si      -2.54371610       0.21489768       2.65625560       0.00000000
