10
Lattice="16.290000149 0.0 0.0 0.0 16.290000149 0.0 0.0 0.0 29.1751946751" Properties=species:S:1:pos:R:3:initial_magmoms:R:1 pbc="T T T"
Si      -1.38826639      -1.27492057      -1.37688013       0.00000000
Si       1.20256039      -1.39742137       1.44168641       0.00000000
Si      -1.41938029       1.38166894       1.28435626       0.00000000
Si       1.87393646       0.80268976      -1.19641988       0.00000000
Si       2.51789645      -2.72077700       0.04089195       0.00000000
Si       2.63080244       0.00632052       2.68488814       0.00000000
Si       2.68275125       2.66139506      -0.01344685       0.00000000
Si       3.50650398      -0.93330298      -1.11134443       0.00000000
Si      -0.09956448       2.72266175       2.67916980       0.00000000
Si      -2.72404152      -2.68126072      -0.02396742       0.00000000
