10
Lattice="16.290000149 0.0 0.0 0.0 16.290000149 0.0 0.0 0.0 29.1751946751" Properties=species:S:1:pos:R:3:initial_magmoms:R:1 pbc="T T T"
Si      -1.23157288       1.20081769       1.59626826       0.00000000
Si      -1.94204495      -0.85173895      -1.06223004       0.00000000
Si       1.30083796      -1.53010342       1.31816739       0.00000000
Si       1.47785683       1.30806258      -1.37296716       0.00000000
H       -0.85349827      -2.55436976      -1.83615255       0.00000000
Si      -2.64878660       2.54363628       0.34190994       0.00000000
Si       2.65022175      -0.28264779      -2.65892221       0.00000000
Si       2.82439769       2.52085309       0.10928153       0.00000000
Si      -3.68859360       0.69038650      -0.61088190       0.00000000
Si       2.69145989      -0.24312825       2.75304723       0.00000000
