10
Lattice="16.290000149 0.0 0.0 0.0 16.290000149 0.0 0.0 0.0 29.1751946751" Properties=species:S:1:pos:R:3:initial_magmoms:R:1 pbc="T T T"
Si      -1.31691831       1.43532657      -1.27586044       0.00000000
Si       1.31410894       1.38392348       1.36382365       0.00000000
Si      -1.39836831      -1.33463971       1.33479433       0.00000000
Si       1.28141165      -1.34519563      -1.45639654       0.00000000
Si      -2.64162112       0.09875031      -2.61317551       0.00000000
Si       2.64712291      -2.69312798      -0.08428714       0.00000000
Si      -0.02994807      -2.69135237       2.67580298       0.00000000
Si       2.65984540       0.02306664       2.71950742       0.00000000
Si       2.69340280       0.04526991      -2.71310347       0.00000000
Si       2.63860324       2.76763845       0.00195474       0.00000000
