10
Lattice="16.290000149 0.0 0.0 0.0 16.290000149 0.0 0.0 0.0 29.1751946751" Properties=species:S:1:pos:R:3:initial_magmoms:R:1 pbc="T T T"
Si       1.36938628      -1.34236117       1.35317470       0.00000000
Si       1.37694484       1.35552349      -1.33225609       0.00000000
Si      -1.32006016       1.36860436       1.38357526       0.00000000
Si      -1.36650295      -1.36171369      -1.35279543       0.00000000
Si      -0.01886382      -2.70216893       2.66707960       0.00000000
Si      -0.00568521       2.71477902      -2.65456344       0.00000000
Si       2.72756505      -0.02099781      -2.68114204       0.00000000
Si      -2.68367978       0.01886382       2.73351151       0.00000000
Si      -2.71010216       2.71704170       0.05082319       0.00000000
Si       2.72179838      -2.71178003       0.00230484       0.00000000
