10
Lattice="16.290000149 0.0 0.0 0.0 16.290000149 0.0 0.0 0.0 29.1751946751" Properties=species:S:1:pos:R:3:initial_magmoms:R:1 pbc="T T T"
Si       1.31194774       1.36135531      -1.38071609       0.00000000
Si      -1.37951866       1.48120084       1.21742252       0.00000000
Si       1.57988566      -1.31468446       1.21896881       0.00000000
Si      -1.49364640      -1.34135119      -1.30500646       0.00000000
Si      -1.68554261      -2.38770677       2.11546419       0.00000000
Si      -2.21674322      -0.00605988       2.85377167       0.00000000
Si       3.42764409       0.15293052       1.39136503       0.00000000
Si       2.36369531      -0.10275732      -2.86990555       0.00000000
Si       3.10586772       2.10973421       0.02529489       0.00000000
H        2.06940017       1.00789489       2.99789713       0.00000000
