10
Lattice="16.290000149 0.0 0.0 0.0 16.290000149 0.0 0.0 0.0 29.1751946751" Properties=species:S:1:pos:R:3:initial_magmoms:R:1 pbc="T T T"
Si      -1.34609158      -1.29163411      -1.42497486       0.00000000
Si      -1.37927431       1.01255383       1.60787415       0.00000000
Si       1.33434649       1.40805874      -1.33756598       0.00000000
Si       1.32260140      -1.37080351       1.42751310       0.00000000
H       -0.30646377       1.18741069       2.81849886       0.00000000
Si       2.49698009       0.26759583       2.77887894       0.00000000
Si       0.03849327      -2.64433943      -2.74019263       0.00000000
Si       2.71632494       0.04693149      -2.69135336       0.00000000
Si       2.80403031      -2.65111607       0.11903479       0.00000000
Si      -0.07169229      -3.20888568       2.14560217       0.00000000
