10
Lattice="10.86 0.0 0.0 0.0 10.86 0.0 0.0 0.0 10.86" Properties=species:S:1:pos:R:3:initial_magmoms:R:1 pbc="T T T"
Si       1.35548004       1.25192994       1.24658682       0.00000000
Si      -1.35951996      -1.46307006       1.24658682       0.00000000
Si       1.35548004      -1.46307006      -1.46841318       0.00000000
Si      -2.49574746       2.52797994      -0.29972514       0.00000000
Si      -0.00201996       2.60942994       2.60408682       0.00000000
Si       2.71298004      -0.10557006       2.60408682       0.00000000
Si      -2.71701996      -0.10557006       2.60408682       0.00000000
Si       2.71298004       2.60942994      -0.11091318       0.00000000
Si      -0.00201996      -2.82057006       2.60408682       0.00000000
Si       2.71298004      -2.82057006      -0.11091318       0.00000000
