10
Lattice="16.28999089631971 0.0 0.0 0.0 16.28999089631971 0.0 0.0 0.0 34.32429715621058" Properties=species:S:1:pos:R:3:initial_magmoms:R:1 pbc="T T T"
Si       1.55919735       0.95722225       1.40413913       0.00000000
Si      -2.17863763       0.18428877       0.84544224       0.00000000
Si       0.46799541      -2.29726467       0.05275647       0.00000000
Si      -0.35567586       0.53988318      -2.26976407       0.00000000
Si      -0.72840735      -2.99139786      -1.84479471       0.00000000
Si       0.92261673       0.10388133       3.53327648       0.00000000
Si       0.30398769      -1.47652560      -3.32853193       0.00000000
Si      -2.73523272       0.76010575      -2.32753189       0.00000000
Si      -3.48145886      -0.90214020      -0.74250361       0.00000000
Si      -0.10142154      -3.22660917       2.10411492       0.00000000
