10
Lattice="16.28999089631971 0.0 0.0 0.0 16.28999089631971 0.0 0.0 0.0 34.32429715621058" Properties=species:S:1:pos:R:3:initial_magmoms:R:1 pbc="T T T"
Si       0.56941695       0.92934450      -2.05135844       0.00000000
Si       1.06246638      -2.06394300      -0.17460780       0.00000000
Si      -2.29762794       0.01754433       0.52602015       0.00000000
Si       1.45961658       1.09346625       1.53347316       0.00000000
Si      -2.62018786       2.38084866       0.74991766       0.00000000
Si      -2.22127834      -0.70340220       2.79475448       0.00000000
Si       3.13004205      -1.64810817       0.98174410       0.00000000
Si       1.02403827       3.33049050       1.42916156       0.00000000
Si       0.07138278      -3.63410352       1.24089268       0.00000000
Si       0.10142154       3.22660917      -2.10411492       0.00000000
