10
Lattice="16.28999089631971 0.0 0.0 0.0 16.28999089631971 0.0 0.0 0.0 34.32429715621058" Properties=species:S:1:pos:R:3:initial_magmoms:R:1 pbc="T T T"
Si      -2.22249424       0.36957123       0.54599690       0.00000000
Si       0.54297176       1.03004928      -2.00859034       0.00000000
Si       1.42901419       1.03146651       1.54528072       0.00000000
Si       0.32255992      -2.36330433      -0.22389752       0.00000000
Si       2.62018786      -2.38084866      -0.74991766       0.00000000
Si      -0.75984946      -0.05637969      -3.59653619       0.00000000
Si       0.39890952      -3.08425086       2.04483682       0.00000000
Si      -2.63235064      -0.92734083       2.48305537       0.00000000
Si      -3.57156688      -0.58143897      -1.11385839       0.00000000
Si      -2.57742076       2.71859316       0.74054713       0.00000000
