10
Lattice="16.28999089631971 0.0 0.0 0.0 16.28999089631971 0.0 0.0 0.0 34.32429715621058" Properties=species:S:1:pos:R:3:initial_magmoms:R:1 pbc="T T T"
Si       2.22068864       0.84031965       0.36823127       0.00000000
Si      -1.46688585       1.82340486       0.80215927       0.00000000
Si      -1.39291296       0.01326006      -2.08122060       0.00000000
Si       0.23912905      -2.61114951      -0.00288324       0.00000000
Si      -0.36558539      -1.24197566       2.35804621       0.00000000
Si      -3.17832954       0.16882956       0.88560169       0.00000000
Si       1.75709153       2.91755529      -0.70172632       0.00000000
Si       0.38748697       0.63493533       3.56152539       0.00000000
Si       3.49617935      -0.79706970      -0.73780118       0.00000000
Si      -3.50258199      -0.69947631      -1.25503430       0.00000000
