10
Lattice="16.28999089631971 0.0 0.0 0.0 16.28999089631971 0.0 0.0 0.0 34.32429715621058" Properties=species:S:1:pos:R:3:initial_magmoms:R:1 pbc="T T T"
Si       1.35597960       1.35671065       1.35821320       0.00000000
Si      -1.35742941       1.35672369      -1.35742374       0.00000000
Si       1.35553977      -1.35954163      -1.35738941       0.00000000
Si      -1.35861858      -1.35897148       1.35814455       0.00000000
Si      -0.00715131       2.71329136      -2.69255383       0.00000000
Si       2.71344159       2.71420360       0.00089243       0.00000000
Si      -0.00087966       2.71320991       2.71491613       0.00000000
Si       2.71399545      -0.00108273       2.71471018       0.00000000
Si       2.71313208      -2.71627057       0.00099541       0.00000000
Si      -2.71722087       2.71286782       0.00082378       0.00000000
