10
Lattice="16.28999089631971 0.0 0.0 0.0 16.28999089631971 0.0 0.0 0.0 34.32429715621058" Properties=species:S:1:pos:R:3:initial_magmoms:R:1 pbc="T T T"
Si       0.86104053       1.63901835      -1.49036182       0.00000000
Si      -1.75956435      -0.97738371      -1.31269915       0.00000000
Si       1.59703902      -1.92871971      -0.15233132       0.00000000
Si      -0.16301403       0.89054172       2.45944024       0.00000000
Si       2.75445981       1.66983903       1.63150340       0.00000000
Si       2.29211703       0.38253807      -2.82101259       0.00000000
Si      -0.44131239      -2.32897316      -2.80872448       0.00000000
Si       2.15728470       3.02835987      -0.12061565       0.00000000
Si       1.25929845      -2.93812630       2.01875034       0.00000000
Si      -2.59278156      -2.88617261      -0.21318833       0.00000000
