10
Lattice="16.28999089631971 0.0 0.0 0.0 16.28999089631971 0.0 0.0 0.0 34.32429715621058" Properties=species:S:1:pos:R:3:initial_magmoms:R:1 pbc="T T T"
Si      -0.24814557      -0.00452047       2.30779541       0.00000000
Si       0.83321721       1.90878889      -1.09951083       0.00000000
Si      -1.86487920      -0.83287416      -1.25527457       0.00000000
Si       1.53288900      -1.90757433      -0.03926702       0.00000000
Si      -2.15679600      -1.51974201       2.01034088       0.00000000
Si       2.15146917       0.55719945      -2.59553615       0.00000000
Si      -0.55715058      -2.17538193      -2.61441453       0.00000000
Si       3.44722464      -0.86589399      -1.24480566       0.00000000
Si       1.84858920      -0.93750483       3.20788196       0.00000000
Si      -2.67444333      -2.72885097       0.00054919       0.00000000
