10
Lattice="16.28999089631971 0.0 0.0 0.0 16.28999089631971 0.0 0.0 0.0 34.32429715621058" Properties=species:S:1:pos:R:3:initial_magmoms:R:1 pbc="T T T"
Si      -0.83321721      -1.90878889       1.09951083       0.00000000
Si       1.75956435       0.97738371       1.31269915       0.00000000
Si       1.31825196      -1.35158945      -1.49602533       0.00000000
Si      -1.39483125       1.35998694      -1.45727317       0.00000000
Si       3.35660337      -0.95133600       1.16036784       0.00000000
Si       2.62060488       2.61640206      -0.17766266       0.00000000
Si       2.61400743      -2.77468289      -0.14529483       0.00000000
Si      -2.69809641      -2.74166306      -0.15576375       0.00000000
Si       2.68294671      -0.00208512      -2.85633231       0.00000000
Si      -2.75522544       2.79751428       0.01242540       0.00000000
