10
Lattice="16.28999089631971 0.0 0.0 0.0 16.28999089631971 0.0 0.0 0.0 34.32429715621058" Properties=species:S:1:pos:R:3:initial_magmoms:R:1 pbc="T T T"
Si      -1.55919735      -0.95722225      -1.40413913       0.00000000
Si      -0.27266202       2.30985847       0.27675696       0.00000000
Si      -0.63658062      -0.85334092       2.12913734       0.00000000
Si       2.23379883      -0.48886846      -0.70800767       0.00000000
Si       0.44787726       0.67468619       3.51498161       0.00000000
Si      -0.96545943       2.38153447       2.61613074       0.00000000
Si      -1.09120194      -3.25448692      -1.35138266       0.00000000
Si       3.63762216       0.70604444       0.88237520       0.00000000
Si      -0.20100231      -3.09036517       2.23344894       0.00000000
Si      -3.73783498      -0.77293348      -0.55869690       0.00000000
