10
Lattice="16.28999089631971 0.0 0.0 0.0 16.28999089631971 0.0 0.0 0.0 34.32429715621058" Properties=species:S:1:pos:R:3:initial_magmoms:R:1 pbc="T T T"
Si      -1.36321236      -1.35620766      -1.33516442       0.00000000
Si       1.35738054      -1.35529542       1.35828185       0.00000000
Si      -1.35703845       1.35751086       1.35762968       0.00000000
Si       1.34964279       1.38792429      -1.36229436       0.00000000
Si      -2.60941365       0.04197933      -2.73899120       0.00000000
Si       2.64042981       0.01547550      -2.76206057       0.00000000
Si      -2.71349046      -2.71277533      -0.00003432       0.00000000
Si       2.71572219      -2.71113818      -0.00415324       0.00000000
Si       2.71301805       2.71454931      -0.00082378       0.00000000
Si      -0.00008145      -2.71278836       2.71560261       0.00000000
