10
Lattice="16.28999089631971 0.0 0.0 0.0 16.28999089631971 0.0 0.0 0.0 34.32429715621058" Properties=species:S:1:pos:R:3:initial_magmoms:R:1 pbc="T T T"
Si       1.37417553      -0.04813695       1.91018253       0.00000000
Si      -1.94514003      -0.80430246       1.08681083       0.00000000
Si       0.49893012      -1.60612884      -1.68347042       0.00000000
Si      -1.84044420      -0.71105850      -1.91289415       0.00000000
Si      -2.47888188       1.61745039      -1.93015928       0.00000000
Si      -0.06330294       0.85613724       3.51062243       0.00000000
Si       3.49695801       0.41866929      -0.85615142       0.00000000
Si      -2.33956980       0.78336981       2.78682557       0.00000000
Si      -0.47205162       2.82608694      -2.42219836       0.00000000
Si       3.26529792       1.23105159       1.40688508       0.00000000
