10
Lattice="16.28999089631971 0.0 0.0 0.0 16.28999089631971 0.0 0.0 0.0 34.32429715621058" Properties=species:S:1:pos:R:3:initial_magmoms:R:1 pbc="T T T"
Si       1.79602137      -0.46511208       1.46523642       0.00000000
Si       0.04362462       2.36698587       0.23694076       0.00000000
Si      -1.62579087      -1.46623032       0.93928492       0.00000000
Si       1.01377557      -0.35161965      -2.15405680       0.00000000
Si       3.49062120       0.72935217       0.35175559       0.00000000
Si      -1.18280061      -3.38595795      -0.30929641       0.00000000
Si       2.35566432       2.79538029       0.68562822       0.00000000
Si      -1.01748969       3.19917681      -1.76423554       0.00000000
Si       3.23881038       0.52452171      -1.98782413       0.00000000
Si       1.24240572       0.41704029       3.66618023       0.00000000
