10
Lattice="16.28999089631971 0.0 0.0 0.0 16.28999089631971 0.0 0.0 0.0 34.32429715621058" Properties=species:S:1:pos:R:3:initial_magmoms:R:1 pbc="T T T"
Si      -0.30501396      -2.05680798      -1.12738217       0.00000000
Si       2.32124355       0.38147922      -0.27994912       0.00000000
Si      -0.99416241       2.07482472      -0.76227442       0.00000000
Si       0.09817983      -0.42360516       2.39329728       0.00000000
Si       2.29475601       2.61073314       0.54853690       0.00000000
Si       0.89695998       3.35401326      -1.26557187       0.00000000
Si       0.86762169      -1.76419071      -3.18831710       0.00000000
Si       3.40249230      -1.32251994       0.88889682       0.00000000
Si      -2.57439015      -2.39596578      -1.62172097       0.00000000
Si       2.30557257      -1.13717232       2.95988877       0.00000000
