10
Lattice="16.28999089631971 0.0 0.0 0.0 16.28999089631971 0.0 0.0 0.0 34.32429715621058" Properties=species:S:1:pos:R:3:initial_magmoms:R:1 pbc="T T T"
Si      -0.51792426      -2.27959002      -0.25557886       0.00000000
Si       2.17720737       0.90284067      -0.15538618       0.00000000
Si      -1.36881612       0.84100383      -1.80020742       0.00000000
Si      -0.22144626       0.77059845       2.27649163       0.00000000
Si       1.52857215       3.19743378      -0.18655266       0.00000000
Si       3.23832168       0.07064973       1.84579011       0.00000000
Si      -2.79419112      -2.35235745      -0.97937572       0.00000000
Si       0.91955421      -3.18386421      -1.85601876       0.00000000
Si       2.99136528       0.42590205      -2.32602162       0.00000000
Si      -0.71449569       3.76388595       0.39974099       0.00000000
