10
Lattice="16.28999089631971 0.0 0.0 0.0 16.28999089631971 0.0 0.0 0.0 34.32429715621058" Properties=species:S:1:pos:R:3:initial_magmoms:R:1 pbc="T T T"
Si      -1.42154685      -1.70707797       0.69304227       0.00000000
Si       2.23332642      -0.76403358      -0.13321267       0.00000000
Si      -0.89384859       1.05955047      -1.97886549       0.00000000
Si       0.09959706       1.63402939       1.84884498       0.00000000
Si       2.81057886       0.68947425      -1.86611011       0.00000000
Si      -1.55144331      -1.01556747      -3.13617846       0.00000000
Si       2.37531006       2.22334784       1.67409988       0.00000000
Si       1.10964222       1.94510160      -2.95480877       0.00000000
Si      -3.59393238      -0.88762581       0.20776509       0.00000000
Si       2.28916854       2.86750331      -0.65985066       0.00000000
