10
Lattice="16.28999089631971 0.0 0.0 0.0 16.28999089631971 0.0 0.0 0.0 34.32429715621058" Properties=species:S:1:pos:R:3:initial_magmoms:R:1 pbc="T T T"
Si       0.20496078       2.16971234      -0.76735442       0.00000000
Si      -0.87786810       0.35101366       2.19421625       0.00000000
Si       2.27831940      -0.63908928       0.38017613       0.00000000
Si      -1.40382333      -1.19491290      -1.59038287       0.00000000
Si       1.30188051       1.98436472      -2.83834637       0.00000000
Si       0.46530756      -1.07015060       3.51800215       0.00000000
Si      -2.00243196       2.88327950      -1.33394591       0.00000000
Si      -3.63762216      -0.70604444      -0.88237520       0.00000000
Si       2.50214400      -2.89666404      -0.13386483       0.00000000
Si      -0.91712700      -3.49690167      -1.38965427       0.00000000
