10
Lattice="16.28999089631971 0.0 0.0 0.0 16.28999089631971 0.0 0.0 0.0 34.32429715621058" Properties=species:S:1:pos:R:3:initial_magmoms:R:1 pbc="T T T"
Si      -2.13622173       0.87190596      -0.29615020       0.00000000
Si       0.44642745      -1.05596667      -2.03536331       0.00000000
Si       1.72418247       1.81581372       0.01311189       0.00000000
Si      -0.69610428      -1.25991747       2.08547681       0.00000000
Si      -2.10918033       2.19203127       1.58650423       0.00000000
Si       2.95534809       0.58121091       1.65031313       0.00000000
Si      -1.54349379       0.65938662       3.22367114       0.00000000
Si       1.40986692       0.78700248      -3.30313193       0.00000000
Si       1.17410175      -2.42048223       3.00251957       0.00000000
Si       2.38467681      -2.60623710      -1.97203495       0.00000000
