10
Lattice="16.28999089631971 0.0 0.0 0.0 16.28999089631971 0.0 0.0 0.0 34.32429715621058" Properties=species:S:1:pos:R:3:initial_magmoms:R:1 pbc="T T T"
Si       2.07394506      -0.49335894      -1.01541625       0.00000000
Si       0.19230345      -0.27934092       2.36484242       0.00000000
Si      -0.69667443       2.28964095      -0.15995131       0.00000000
Si      -1.46810367      -1.34477208      -1.36789265       0.00000000
Si      -2.10180096      -1.00835100       2.47478321       0.00000000
Si       0.56265660       1.97666118       2.95532364       0.00000000
Si       1.64745657      -0.36333216      -3.31542004       0.00000000
Si      -0.37118394      -1.53011970      -3.43888461       0.00000000
Si       0.99792540       3.48410520      -1.27343214       0.00000000
Si       2.49184872      -2.82330135      -0.90976600       0.00000000
