10
Lattice="16.28999089631971 0.0 0.0 0.0 16.28999089631971 0.0 0.0 0.0 34.32429715621058" Properties=species:S:1:pos:R:3:initial_magmoms:R:1 pbc="T T T"
Si      -1.81964187      -0.91751796      -1.15504757       0.00000000
Si      -0.92088999       0.19813527       2.15137950       0.00000000
Si       1.02612339       1.82125458      -1.08677650       0.00000000
Si       1.71590715      -2.01534993       0.24953778       0.00000000
Si      -0.29872602      -2.04951006       1.97471224       0.00000000
Si       2.24855757       0.41570451      -2.56519346       0.00000000
Si      -0.47179098      -2.31632397      -2.55637211       0.00000000
Si       3.51420912      -0.94682367      -1.13256514       0.00000000
Si      -3.32560350      -1.91435193       0.46684503       0.00000000
Si       2.85335640       2.64468150       0.37753316       0.00000000
