10
Lattice="16.28999089631971 0.0 0.0 0.0 16.28999089631971 0.0 0.0 0.0 34.32429715621058" Properties=species:S:1:pos:R:3:initial_magmoms:R:1 pbc="T T T"
Si       1.35816246       1.35539285       1.35756104       0.00000000
Si       1.35738054      -1.35703128      -1.35697752       0.00000000
Si      -1.35760045       1.35808885      -1.35670293       0.00000000
Si      -1.35783177      -1.35838335       1.35697752       0.00000000
Si       0.00087966      -2.71120269       2.71491613       0.00000000
Si       2.71456560      -2.71441182       0.00003432       0.00000000
Si       2.71616202       0.00078909       2.71282234       0.00000000
Si      -0.00122175       2.71480801      -2.71429829       0.00000000
Si      -2.71527562      -2.71465617       0.00020595       0.00000000
Si       2.71511946       2.71515010      -0.00020595       0.00000000
