10
Lattice="16.28999089631971 0.0 0.0 0.0 16.28999089631971 0.0 0.0 0.0 34.32429715621058" Properties=species:S:1:pos:R:3:initial_magmoms:R:1 pbc="T T T"
Si      -1.46525292      -0.97839369      -1.53107045       0.00000000
Si      -0.61550136      -0.77545287       2.12900005       0.00000000
Si       2.30599611      -0.32109219      -0.34125235       0.00000000
Si      -0.74663586       2.16344560      -0.69287065       0.00000000
Si       0.20693187      -3.19345902       1.65312772       0.00000000
Si      -2.96790768       2.04512523       0.12617619       0.00000000
Si      -3.55980483      -0.22716405      -0.74250361       0.00000000
Si      -0.93107124       0.21861180      -3.52569080       0.00000000
Si       0.57715470       0.99675252       3.46757973       0.00000000
Si       1.08190035       3.50226596      -0.10873943       0.00000000
