10
Lattice="16.28999089631971 0.0 0.0 0.0 16.28999089631971 0.0 0.0 0.0 34.32429715621058" Properties=species:S:1:pos:R:3:initial_magmoms:R:1 pbc="T T T"
Si      -1.68075333       1.66733851       0.15688890       0.00000000
Si      -0.89498889      -1.77929058       1.30153689       0.00000000
Si       1.86891979       0.97556738       1.14619533       0.00000000
Si      -0.88676244       1.98403240      -2.10024455       0.00000000
Si      -0.29134665      -2.70591465      -1.61033358       0.00000000
Si       0.48734793       2.22878965       2.64210052       0.00000000
Si      -2.27691846      -0.47922471       2.65079144       0.00000000
Si      -2.18561301      -3.05474871      -0.16843770       0.00000000
Si      -1.47527127       0.06794559      -3.47668395       0.00000000
Si      -0.86864796       3.54648775       1.29599351       0.00000000
