10
Lattice="16.28999089631971 0.0 0.0 0.0 16.28999089631971 0.0 0.0 0.0 34.32429715621058" Properties=species:S:1:pos:R:3:initial_magmoms:R:1 pbc="T T T"
Si       1.38192957      -1.30006587      -1.34925455       0.00000000
Si      -1.33079526      -1.36859790       1.35726585       0.00000000
Si       1.38051234       1.34879794       1.34978315       0.00000000
Si      -1.41477021       1.29058400      -1.46848006       0.00000000
Si       0.59616513       2.14656322      -2.49390254       0.00000000
Si       2.27691846       0.47922471      -2.65079144       0.00000000
Si      -2.68995141      -0.01058712       2.71046769       0.00000000
Si       0.09130545      -2.57552400      -2.81922913       0.00000000
Si      -2.66724315      -2.73500310      -0.01984975       0.00000000
Si      -2.70225036       2.71029496      -0.02913105       0.00000000
