10
Lattice="16.28999089631971 0.0 0.0 0.0 16.28999089631971 0.0 0.0 0.0 34.32429715621058" Properties=species:S:1:pos:R:3:initial_magmoms:R:1 pbc="T T T"
Si       1.34925183       1.35871632      -1.36401401       0.00000000
Si      -1.36363913       1.19983995       1.50007560       0.00000000
Si      -1.36276343      -1.35803214      -1.36576455       0.00000000
Si       1.34328969      -1.27446444       1.50127695       0.00000000
Si       0.42575544       2.12605677       2.81860988       0.00000000
Si      -0.48565051      -2.26025379       2.72974423       0.00000000
Si      -2.37559418      -0.60680250       2.78294692       0.00000000
Si       2.70368388      -2.71199178       0.03157837       0.00000000
Si       2.70658350       0.00058644      -2.72236450       0.00000000
Si      -2.72012768       2.70982521       0.03037702       0.00000000
