10
Lattice="16.28999089631971 0.0 0.0 0.0 16.28999089631971 0.0 0.0 0.0 34.32429715621058" Properties=species:S:1:pos:R:3:initial_magmoms:R:1 pbc="T T T"
Si      -1.61995905       1.27433412       1.01067949       0.00000000
Si       0.46102329      -1.73828961       1.47309668       0.00000000
Si      -0.32425245      -0.86830587      -2.14063599       0.00000000
Si       1.71144369       1.65457530      -0.08344241       0.00000000
Si       3.17832954      -0.16882956      -0.88560169       0.00000000
Si       1.78541658      -0.15556950      -2.96682228       0.00000000
Si       2.81274415      -1.41080522       1.47244452       0.00000000
Si      -1.45257930       3.13048188      -0.45084990       0.00000000
Si      -0.77556690      -1.18563507       3.41633353       0.00000000
Si      -1.19347056       1.14430734       3.31068328       0.00000000
