10
Lattice="16.28999089631971 0.0 0.0 0.0 16.28999089631971 0.0 0.0 0.0 34.32429715621058" Properties=species:S:1:pos:R:3:initial_magmoms:R:1 pbc="T T T"
Si       1.82894020       0.98578935      -1.22846728       0.00000000
Si      -0.95937741      -1.77626160      -1.34887698       0.00000000
Si       0.66347704      -0.96448203       2.16346166       0.00000000
Si      -1.88994366       1.65345129       0.05320269       0.00000000
Si       1.48289173       1.25338518       2.55558265       0.00000000
Si      -1.17728874      -2.56982895       2.03151899       0.00000000
Si       0.48565051       2.26025379      -2.72974423       0.00000000
Si      -2.24622225      -0.44996238      -2.75119693       0.00000000
Si       2.78257309       2.39681286       0.71284740       0.00000000
Si      -2.67090255      -2.64264525       0.02742513       0.00000000
