10
Lattice="16.28999089631971 0.0 0.0 0.0 16.28999089631971 0.0 0.0 0.0 34.32429715621058" Properties=species:S:1:pos:R:3:initial_magmoms:R:1 pbc="T T T"
Si       1.35586557      -1.35791811      -1.36343049       0.00000000
Si      -1.36081773       1.35835794      -1.36246941       0.00000000
Si      -1.35454608      -1.36388025       1.37592454       0.00000000
Si       1.35690813       1.35149985       1.39061535       0.00000000
Si       2.71427238      -2.71635750      -0.00552621       0.00000000
Si      -2.71652040      -2.71417464      -0.00435919       0.00000000
Si       2.71476108       2.71800279      -0.00511432       0.00000000
Si       2.71334123       0.00006516      -2.72027072       0.00000000
Si      -0.00159642      -2.71480995      -2.72006477       0.00000000
Si      -2.71824714       2.71793763      -0.00181919       0.00000000
