10
Lattice="16.28999089631971 0.0 0.0 0.0 16.28999089631971 0.0 0.0 0.0 34.32429715621058" Properties=species:S:1:pos:R:3:initial_magmoms:R:1 pbc="T T T"
Si      -1.75576878      -0.90285696      -1.35687455       0.00000000
Si      -1.44145323       0.12595428       1.95936927       0.00000000
Si       1.01195504       1.80664245      -1.28287132       0.00000000
Si       1.88994366      -1.65345129      -0.05320269       0.00000000
Si      -0.35627859      -2.10341367      -2.80439962       0.00000000
Si       2.37559418       0.60680250      -2.78294692       0.00000000
Si      -0.21028761      -1.10864853       3.59657051       0.00000000
Si       0.93056625      -3.42971289      -1.40207967       0.00000000
Si      -2.71920825      -2.74582611      -0.08910593       0.00000000
Si       2.80134962       2.73285927       0.03566296       0.00000000
