10
Lattice="16.28999089631971 0.0 0.0 0.0 16.28999089631971 0.0 0.0 0.0 34.32429715621058" Properties=species:S:1:pos:R:3:initial_magmoms:R:1 pbc="T T T"
Si       1.35664749      -1.35387819      -1.35625671       0.00000000
Si      -1.35772263      -1.35526284       1.35725212       0.00000000
Si       1.35723393       1.35951453       1.35697752       0.00000000
Si      -1.35915615       1.36350558      -1.35989509       0.00000000
Si       2.70557072       0.00125433      -2.69368997       0.00000000
Si       2.71439078      -2.71269225      -0.00058351       0.00000000
Si      -2.71489140      -2.71235016      -0.00058351       0.00000000
Si       0.00040725      -2.71309950       2.71426396       0.00000000
Si       2.71534490       0.00177561       2.71405802       0.00000000
Si      -2.71552671       0.00254124       2.71419531       0.00000000
