10
Lattice="16.28999089631971 0.0 0.0 0.0 16.28999089631971 0.0 0.0 0.0 34.32429715621058" Properties=species:S:1:pos:R:3:initial_magmoms:R:1 pbc="T T T"
Si       1.35811097      -1.35773892       1.35708050       0.00000000
Si      -1.35757602       1.35839052       1.35701185       0.00000000
Si       1.35898624       1.35628911      -1.35790428       0.00000000
Si      -1.35723393      -1.35951453      -1.35697752       0.00000000
Si      -0.00058644      -2.71339272      -2.71323423       0.00000000
Si      -0.00052128       2.71471221       2.71416099       0.00000000
Si       2.71484646       0.00013032       2.71412667       0.00000000
Si       2.71457116      -2.71466334       0.00048054       0.00000000
Si       0.00063531      -2.71572219       2.71392072       0.00000000
Si      -2.71495656      -2.71477737       0.00027459       0.00000000
