10
Lattice="16.28999089631971 0.0 0.0 0.0 16.28999089631971 0.0 0.0 0.0 34.32429715621058" Properties=species:S:1:pos:R:3:initial_magmoms:R:1 pbc="T T T"
Si      -0.17871759       0.47698749       2.29193757       0.00000000
Si       0.78020533       2.10729069      -0.70694362       0.00000000
Si       1.59509629      -1.26451125      -1.25228836       0.00000000
Si      -2.11326912      -0.25151760      -1.16579108       0.00000000
Si       0.82592485      -3.11718924       1.57919315       0.00000000
Si       0.63908832      -1.35254241      -3.41523515       0.00000000
Si      -1.55931138      -1.97156241      -2.75401152       0.00000000
Si      -0.15324003       2.47679676      -2.80244313       0.00000000
Si      -2.37218238       1.83440061      -2.32306973       0.00000000
Si      -2.40738507       1.33907058       2.64420803       0.00000000
