10
Lattice="16.28999089631971 0.0 0.0 0.0 16.28999089631971 0.0 0.0 0.0 34.32429715621058" Properties=species:S:1:pos:R:3:initial_magmoms:R:1 pbc="T T T"
Si       1.10239205      -0.77626737       1.92964442       0.00000000
Si      -1.91699091      -1.40305770       0.11539835       0.00000000
Si       0.42790572       2.03830254      -1.17234702       0.00000000
Si      -1.33763706       1.68660144       1.18247270       0.00000000
Si       1.43254816      -1.55587419      -1.88509145       0.00000000
Si      -1.80076176       2.90038563      -0.82007657       0.00000000
Si       3.22954856      -1.85365539      -0.38903180       0.00000000
Si      -1.08002700      -3.60140949      -0.11738916       0.00000000
Si      -0.56394351      -1.44067131       3.43723704       0.00000000
Si      -2.65621482      -1.25662689       2.36614675       0.00000000
