10
Lattice="16.28999089631971 0.0 0.0 0.0 16.28999089631971 0.0 0.0 0.0 34.32429715621058" Properties=species:S:1:pos:R:3:initial_magmoms:R:1 pbc="T T T"
Si      -1.35705474      -1.35632169      -1.35714914       0.00000000
Si       1.36005210      -1.35451350       1.35807590       0.00000000
Si       1.35801349       1.35793440      -1.35680590       0.00000000
Si      -1.35858600       1.35565380       1.35903698       0.00000000
Si      -2.71437012       0.00052128      -2.71426396       0.00000000
Si       0.00052128      -2.71471221      -2.71416099       0.00000000
Si       0.00034209       2.71541268      -2.71405802       0.00000000
Si       2.71545733       2.71420722      -0.00003432       0.00000000
Si      -2.71552671      -2.71415835       0.00072081       0.00000000
Si       2.71536774      -2.71458189      -0.00003432       0.00000000
