10
Lattice="16.28999089631971 0.0 0.0 0.0 16.28999089631971 0.0 0.0 0.0 34.32429715621058" Properties=species:S:1:pos:R:3:initial_magmoms:R:1 pbc="T T T"
Si      -0.70477219      -1.99498743       1.25305310       0.00000000
Si      -1.71291142       1.78176762       0.13937492       0.00000000
Si      -0.83017750      -0.78952743      -2.20174910       0.00000000
Si       2.08015155       0.80444907       1.09409376       0.00000000
Si      -1.93454523      -0.57233286       2.60721946       0.00000000
Si       0.79522893       2.14092954       2.58482628       0.00000000
Si       0.62542197       0.64091376      -3.43158935       0.00000000
Si      -3.42822140       0.60217614       1.23817351       0.00000000
Si       0.17692569       2.88432369      -2.31172421       0.00000000
Si      -0.50693828       3.50239887       1.19115950       0.00000000
