10
Lattice="16.28999089631971 0.0 0.0 0.0 16.28999089631971 0.0 0.0 0.0 34.32429715621058" Properties=species:S:1:pos:R:3:initial_magmoms:R:1 pbc="T T T"
Si       1.20597314       1.72063125       1.05178458       0.00000000
Si      -1.71530998      -1.17959148       1.09879860       0.00000000
Si      -0.42768322       1.25993376      -1.96352221       0.00000000
Si       1.71291142      -1.78176762      -0.13937492       0.00000000
Si       1.88983711       1.10255607      -2.45109913       0.00000000
Si      -0.22163381      -2.35410048       2.46784455       0.00000000
Si       2.50814035       0.35916192       2.44545136       0.00000000
Si       0.88273392      -2.57129505      -2.34112402       0.00000000
Si      -2.94717607       0.36057915       2.42000332       0.00000000
Si      -1.36623157      -1.96113681      -2.99476197       0.00000000
