10
Lattice="16.28999089631971 0.0 0.0 0.0 16.28999089631971 0.0 0.0 0.0 34.32429715621058" Properties=species:S:1:pos:R:3:initial_magmoms:R:1 pbc="T T T"
Si       1.35711990      -1.35659862      -1.35711482       0.00000000
Si      -1.35718995       1.35777150      -1.35721779       0.00000000
Si      -1.35798653      -1.35742941       1.35697752       0.00000000
Si       1.35710361       1.35824391       1.35872806       0.00000000
Si      -0.00123804      -2.71340901      -2.71443558       0.00000000
Si      -2.71330217       0.00263898       2.71508775       0.00000000
Si       2.71438641       0.00037467      -2.71412667       0.00000000
Si      -2.71384675      -0.00127062      -2.71505342       0.00000000
Si       2.71448415      -2.71484253       0.00048054       0.00000000
Si       2.71450044       2.71533123       0.00003432       0.00000000
