10
Lattice="16.28999089631971 0.0 0.0 0.0 16.28999089631971 0.0 0.0 0.0 34.32429715621058" Properties=species:S:1:pos:R:3:initial_magmoms:R:1 pbc="T T T"
Si      -1.34925183      -1.35871632       1.36401401       0.00000000
Si      -1.35621092       1.35754344      -1.35944887       0.00000000
Si       1.35733167      -1.35812988      -1.35835049       0.00000000
Si       1.37239992       1.35019665       1.37204590       0.00000000
Si      -0.10979460       2.53954584       2.76808449       0.00000000
Si       2.71520091      -2.71228500       0.00284892       0.00000000
Si      -2.71201526      -2.71674846      -0.00175054       0.00000000
Si      -2.71152656       2.71761183      -0.00133865       0.00000000
Si      -2.71294641      -0.00032580      -2.71649504       0.00000000
Si       2.71650411       2.71327869       0.00006865       0.00000000
