10
Lattice="16.28999089631971 0.0 0.0 0.0 16.28999089631971 0.0 0.0 0.0 34.32429715621058" Properties=species:S:1:pos:R:3:initial_magmoms:R:1 pbc="T T T"
Si      -0.84165543      -1.70789247      -1.44014534       0.00000000
Si      -1.49025807       1.97421768      -0.25530426       0.00000000
Si       1.80481797       1.01659374      -1.51267262       0.00000000
Si      -0.80187525      -0.68377275       2.42865133       0.00000000
Si       0.20549835       1.48926438       2.78617341       0.00000000
Si       2.37517974       1.69044588       1.79471553       0.00000000
Si      -2.10036255      -0.19706013      -2.83621826       0.00000000
Si       0.28452114      -3.07587780       1.93180685       0.00000000
Si      -0.97261074       3.18332664       1.75448743       0.00000000
Si       3.21681888      -0.54128412       2.01686250       0.00000000
