10
Lattice="16.28999089631971 0.0 0.0 0.0 16.28999089631971 0.0 0.0 0.0 34.32429715621058" Properties=species:S:1:pos:R:3:initial_magmoms:R:1 pbc="T T T"
Si       0.87749343       2.03430239      -0.79268576       0.00000000
Si       0.35567586      -0.53988318       2.26976407       0.00000000
Si       0.65966355      -2.01640878      -1.05876786       0.00000000
Si      -2.37955686       0.22022257      -0.05776782       0.00000000
Si      -0.37273149      -3.53128104       0.42496936       0.00000000
Si      -1.82296177      -0.35559441       3.11520630       0.00000000
Si      -0.39799728       3.67169174       0.31334668       0.00000000
Si       0.82367127      -2.83714785       2.32252054       0.00000000
Si      -3.12578300      -1.44202338       1.52726046       0.00000000
Si      -2.61868592       2.83137209      -0.05488458       0.00000000
