10
Lattice="16.28999089631971 0.0 0.0 0.0 16.28999089631971 0.0 0.0 0.0 34.32429715621058" Properties=species:S:1:pos:R:3:initial_magmoms:R:1 pbc="T T T"
Si      -0.50639487       2.25591155      -0.24905724       0.00000000
Si       2.26504631      -0.41451534      -0.41161720       0.00000000
Si      -0.67893855      -0.55931715       2.19490273       0.00000000
Si       1.74739898      -1.62362430      -2.42140890       0.00000000
Si      -2.00000868       2.18309525      -2.25315110       0.00000000
Si      -1.10091471       3.08158649       1.89521713       0.00000000
Si      -2.96613600       0.00272043       2.45230078       0.00000000
Si      -0.70290114      -2.91384117       2.54058292       0.00000000
Si       0.53112730       0.45717691       3.97355448       0.00000000
Si       3.44315540      -2.10857760       0.62006877       0.00000000
