10
Lattice="10.86 0.0 0.0 0.0 10.86 0.0 0.0 0.0 10.86" Properties=species:S:1:pos:R:3:initial_magmoms:R:1 pbc="T T T"
Si      -1.24076586       1.63028148       0.91151238       0.00000000
Si      -1.37255196      -0.90083700      -1.70021988       0.00000000
Si       1.05452772       1.46664300      -1.69550664       0.00000000
Si      -0.15977232      -1.96858134       1.54506306       0.00000000
Si      -2.70322776       0.35830398       2.15616612       0.00000000
Si      -2.70322776      -2.35669602      -0.55883388       0.00000000
Si       0.01177224       3.07330398       2.15616612       0.00000000
Si      -1.56058200      -1.05144348       3.50420706       0.00000000
Si       0.01177224      -2.35669602      -3.27383388       0.00000000
Si      -1.29304590      -3.77746638       0.62411334       0.00000000
