10
Lattice="10.86 0.0 0.0 0.0 10.86 0.0 0.0 0.0 10.86" Properties=species:S:1:pos:R:3:initial_magmoms:R:1 pbc="T T T"
Si       1.39289274       1.27890618       1.17665928       0.00000000
Si      -1.32210726       1.27890618      -1.53834072       0.00000000
Si       1.39289274      -1.43609382      -1.53834072       0.00000000
Si       0.02006928      -2.46858660       2.60736654       0.00000000
Si      -0.07244706       2.41450380       2.73718698       0.00000000
Si       2.75039274      -0.07859382       2.53415928       0.00000000
Si       2.75039274       2.63640618      -0.18084072       0.00000000
Si      -2.99435178       2.38724520       0.03998652       0.00000000
Si       0.03539274       2.63640618      -2.89584072       0.00000000
Si       2.75039274      -2.79359382      -0.18084072       0.00000000
