10
Lattice="10.86 0.0 0.0 0.0 10.86 0.0 0.0 0.0 10.86" Properties=species:S:1:pos:R:3:initial_magmoms:R:1 pbc="T T T"
Si       1.30644714       1.16699388       1.38806004       0.00000000
Si      -1.40855286       1.16699388      -1.32693996       0.00000000
Si      -1.40855286      -1.54800612       1.38806004       0.00000000
Si       2.55610734      -0.41240850      -2.48141226       0.00000000
Si       2.66394714       2.52449388       0.03056004       0.00000000
Si      -0.05105286       2.52449388      -2.68443996       0.00000000
Si      -2.66109096      -0.27602862      -2.57159370       0.00000000
Si      -0.05105286       2.52449388       2.74556004       0.00000000
Si      -2.76605286       2.52449388       0.03056004       0.00000000
Si       2.66394714      -0.19050612       2.74556004       0.00000000
