10
Lattice="16.28999089631971 0.0 0.0 0.0 16.28999089631971 0.0 0.0 0.0 34.63643526849801" Properties=species:S:1:pos:R:3:initial_magmoms:R:1 pbc="T T T"
Si       1.35405311       1.33237539       1.37492870       0.00000000
Si      -1.36009451      -1.37689596       1.37295442       0.00000000
Si       1.41557230      -1.32910110      -1.39834641       0.00000000
Si      -1.44776729       1.32084207      -1.40576207       0.00000000
Si      -2.11448441      -0.73119294      -2.55144144       0.00000000
Si      -0.32623337      -2.50156082      -2.58778928       0.00000000
Si      -2.73267362       2.68680744       0.02520841       0.00000000
Si       2.72621031       2.69645112      -0.01023161       0.00000000
Si      -0.00309992       2.69606016       2.73406318       0.00000000
Si       2.70239433      -2.73100517       0.01576305       0.00000000
