10
Lattice="16.28999089631971 0.0 0.0 0.0 16.28999089631971 0.0 0.0 0.0 34.63643526849801" Properties=species:S:1:pos:R:3:initial_magmoms:R:1 pbc="T T T"
Si      -2.15317052       1.09262147      -0.31314819       0.00000000
Si       1.42126992       1.55597586       1.22685786       0.00000000
Si       0.59404417      -0.96063759      -2.20793544       0.00000000
Si       0.33850457      -2.35100538       0.92437770       0.00000000
Si       1.26557010      -3.02431995      -1.31490373       0.00000000
Si       1.95527241       3.07063961      -0.73058674       0.00000000
Si       3.53563047       0.55447480       1.48015425       0.00000000
Si      -2.12770925       3.24269459       0.66141774       0.00000000
Si      -1.74065885      -3.52694790       0.96465990       0.00000000
Si      -2.53836386       1.98077345      -2.51301333       0.00000000
