10
Lattice="16.28999089631971 0.0 0.0 0.0 16.28999089631971 0.0 0.0 0.0 34.63643526849801" Properties=species:S:1:pos:R:3:initial_magmoms:R:1 pbc="T T T"
Si      -1.37360538       1.35612621       1.42113373       0.00000000
Si       1.37202525      -1.52520012       1.28667502       0.00000000
Si      -1.88309142      -1.31325093      -0.83369946       0.00000000
Si       0.52053066       0.82489302      -2.28101836       0.00000000
Si      -1.18697085      -0.67667031      -2.94714665       0.00000000
Si       0.01314603       2.64865626       2.77818452       0.00000000
Si       2.76066630      -0.10114461       2.69926883       0.00000000
Si      -2.69534503      -0.10868688       2.83923127       0.00000000
Si       2.07176220      -3.33878211      -0.16396898       0.00000000
Si      -2.71318095       2.92548852       0.13767991       0.00000000
