10
Lattice="16.28999089631971 0.0 0.0 0.0 16.28999089631971 0.0 0.0 0.0 34.63643526849801" Properties=species:S:1:pos:R:3:initial_magmoms:R:1 pbc="T T T"
Si       1.35679410       1.35705311      -1.35722947       0.00000000
Si      -1.35861858      -1.35834579      -1.35702166       0.00000000
Si       1.35580041      -1.35959527       1.36297913       0.00000000
Si      -1.36041048       1.36078352       1.36339476       0.00000000
Si      -0.00092853       2.71366802      -2.71511704       0.00000000
Si       2.71487511      -0.00048544      -2.71456286       0.00000000
Si      -2.71548598      -0.00094808      -2.71515168       0.00000000
Si      -0.00135207      -2.71538892      -2.71532486       0.00000000
Si      -2.71675498       2.71456397      -0.00117764       0.00000000
Si       2.71446786      -2.71713195      -0.00069273       0.00000000
