10
Lattice="16.28999089631971 0.0 0.0 0.0 16.28999089631971 0.0 0.0 0.0 34.63643526849801" Properties=species:S:1:pos:R:3:initial_magmoms:R:1 pbc="T T T"
Si      -0.41166459       1.62528588      -1.65721581       0.00000000
Si       2.02499361      -0.54592677       1.13590253       0.00000000
Si      -0.72793494       1.13704200       2.10277916       0.00000000
Si      -1.60515144      -1.92963358      -0.05728870       0.00000000
Si       1.58345316       1.27540926       2.61709588       0.00000000
Si      -0.98699481      -0.96654597       3.11631110       0.00000000
Si      -1.52194212       0.17366769      -3.19406994       0.00000000
Si       1.09129968      -2.19102129       2.62142543       0.00000000
Si      -1.43884683       3.31050267      -0.10086136       0.00000000
Si      -3.01288437      -1.10059475      -1.80261964       0.00000000
