10
Lattice="16.28999089631971 0.0 0.0 0.0 16.28999089631971 0.0 0.0 0.0 34.63643526849801" Properties=species:S:1:pos:R:3:initial_magmoms:R:1 pbc="T T T"
Si      -0.78928308       0.46880502       2.14292281       0.00000000
Si       0.25905987       2.10358797      -1.01353194       0.00000000
Si      -1.71424557      -1.24944300      -1.03542217       0.00000000
Si       2.07829449      -1.22447532      -0.49488566       0.00000000
Si      -0.61815663      -0.96308761      -3.17359979       0.00000000
Si       0.98699481       0.96654597      -3.11631110       0.00000000
Si      -1.81539018      -1.70568910       2.36113248       0.00000000
Si       2.57044797       2.24195523      -0.49921522       0.00000000
Si      -1.58162868      -3.15673714       0.37878427       0.00000000
Si       3.01198842       0.42061920      -1.98040857       0.00000000
