10
Lattice="16.28999089631971 0.0 0.0 0.0 16.28999089631971 0.0 0.0 0.0 34.63643526849801" Properties=species:S:1:pos:R:3:initial_magmoms:R:1 pbc="T T T"
Si       1.34978940      -1.34773686       1.35386974       0.00000000
Si       1.34143263       1.35379674      -1.35868074       0.00000000
Si      -1.36018242      -1.32540327      -1.37755761       0.00000000
Si      -1.36283769       1.36309833       1.34756590       0.00000000
Si      -0.43675119       2.20393926      -2.65610691       0.00000000
Si      -2.22928650       0.50231844      -2.77964129       0.00000000
Si       2.72626182       0.01749546      -2.68320301       0.00000000
Si      -0.00500103      -2.70718134       2.70898639       0.00000000
Si       2.70855459      -2.70834119      -0.01160321       0.00000000
Si       2.70889668       0.00654858       2.70884784       0.00000000
