10
Lattice="16.28999089631971 0.0 0.0 0.0 16.28999089631971 0.0 0.0 0.0 34.63643526849801" Properties=species:S:1:pos:R:3:initial_magmoms:R:1 pbc="T T T"
Si      -0.43539912       2.24285607       0.62917120       0.00000000
Si      -0.13923063      -0.44126352      -2.34249806       0.00000000
Si       2.20949415      -0.84665646       0.34698800       0.00000000
Si      -1.72537164      -1.42074864       0.88111677       0.00000000
Si       0.03012021      -2.78456373      -2.15712376       0.00000000
Si       2.15822952      -2.65582386      -1.25432457       0.00000000
Si      -1.71779679      -3.18594933      -0.69356037       0.00000000
Si       1.43422047       3.62261907       0.09365697       0.00000000
Si       2.60239266      -1.29710754       2.61259314       0.00000000
Si       3.82358880       0.87623910      -0.02244442       0.00000000
