10
Lattice="16.28999089631971 0.0 0.0 0.0 16.28999089631971 0.0 0.0 0.0 34.63643526849801" Properties=species:S:1:pos:R:3:initial_magmoms:R:1 pbc="T T T"
Si       2.09201067       0.85657707       0.59550456       0.00000000
Si      -0.68134554      -0.66360573       2.16454085       0.00000000
Si       1.02284910      -1.92301821      -1.24618500       0.00000000
Si      -0.94828977       2.12040414      -0.95170586       0.00000000
Si       2.87147088       1.29163410      -1.68440542       0.00000000
Si       1.13502204       2.97950616      -1.77937858       0.00000000
Si       3.31196877      -1.22614830      -1.30191506       0.00000000
Si       3.48016302      -1.09331964       0.97137006       0.00000000
Si       0.62995059      -1.47256713      -3.51179013       0.00000000
Si       1.09683828      -1.51374825       3.46196702       0.00000000
