10
Lattice="16.28999089631971 0.0 0.0 0.0 16.28999089631971 0.0 0.0 0.0 34.63643526849801" Properties=species:S:1:pos:R:3:initial_magmoms:R:1 pbc="T T T"
Si      -1.22442156      -1.49473523      -1.38992629       0.00000000
Si       1.40773293      -0.82903882       1.74533095       0.00000000
Si       1.49094225       1.27426244      -1.39145029       0.00000000
Si      -1.26871407       1.40077058       1.67276758       0.00000000
Si      -2.41654005       2.53670486      -0.10882774       0.00000000
Si       3.01288437       1.10059475       1.80261964       0.00000000
Si      -2.62994231      -2.63050661       0.19541888       0.00000000
Si       2.60121978       2.72588063       0.14540384       0.00000000
Si      -2.49421566      -0.10930916      -2.85452877       0.00000000
Si       0.22662648       2.62476860      -2.85678014       0.00000000
