10
Lattice="16.28999089631971 0.0 0.0 0.0 16.28999089631971 0.0 0.0 0.0 34.63643526849801" Properties=species:S:1:pos:R:3:initial_magmoms:R:1 pbc="T T T"
Si       1.34162811       1.35659862       1.36682377       0.00000000
Si      -1.35749457       1.35591444      -1.35698702       0.00000000
Si       1.35563751      -1.35988920      -1.35712557       0.00000000
Si      -1.36231641      -1.36026387       1.36110876       0.00000000
Si      -0.00030951       2.71334385      -2.71411258       0.00000000
Si       2.71461447      -0.00140094      -2.71393940       0.00000000
Si       2.71213839       2.71645524       0.00297874       0.00000000
Si      -2.71511946      -0.00162900      -2.71418186       0.00000000
Si      -0.00050499      -2.71648782      -2.71383549       0.00000000
Si      -2.71821456       2.71249677       0.00284019       0.00000000
