10
Lattice="16.28999089631971 0.0 0.0 0.0 16.28999089631971 0.0 0.0 0.0 34.63643526849801" Properties=species:S:1:pos:R:3:initial_magmoms:R:1 pbc="T T T"
Si      -1.04558994       1.68350634      -1.38933747       0.00000000
Si       1.63592325      -1.05101451      -1.48160898       0.00000000
Si      -2.07166446      -1.50157962      -0.16996108       0.00000000
Si       0.76434309       0.28882170       2.48398798       0.00000000
Si      -2.27566413       0.21696651      -2.93879927       0.00000000
Si      -1.28829465      -0.53680437       3.45723772       0.00000000
Si       0.38923326      -2.46537747      -2.94337128       0.00000000
Si      -1.01615391      -3.52370619      -1.31639309       0.00000000
Si       2.51271621      -3.04771239       0.00512620       0.00000000
Si      -3.14540352       2.39994054      -0.39049139       0.00000000
