10
Lattice="16.28999089631971 0.0 0.0 0.0 16.28999089631971 0.0 0.0 0.0 34.63643526849801" Properties=species:S:1:pos:R:3:initial_magmoms:R:1 pbc="T T T"
Si       1.35449721      -1.35322659       1.36027748       0.00000000
Si      -1.35795069      -1.35633798      -1.35681384       0.00000000
Si       1.35749457       1.35859838      -1.35726411       0.00000000
Si      -1.35866745       1.35753667       1.36367186       0.00000000
Si       2.71349046       0.01062108       2.69911500       0.00000000
Si       2.71541268      -2.71179630       0.00096982       0.00000000
Si       0.00017919      -2.71362078      -2.71452822       0.00000000
Si       2.71433754       0.00164529      -2.71425113       0.00000000
Si      -2.71513575      -2.71376739       0.00031173       0.00000000
Si       2.71529865       2.71449622       0.00072737       0.00000000
