10
Lattice="16.28999089631971 0.0 0.0 0.0 16.28999089631971 0.0 0.0 0.0 34.63643526849801" Properties=species:S:1:pos:R:3:initial_magmoms:R:1 pbc="T T T"
Si      -1.34162811      -1.35659862      -1.36682377       0.00000000
Si       1.31075856      -1.22978097       1.52216827       0.00000000
Si       1.37051028       1.35985662      -1.36384504       0.00000000
Si      -1.33534017       1.37020077       1.42671020       0.00000000
Si       0.54491679       2.38055544       2.48042043       0.00000000
Si       2.25849447       0.64399257       2.77874421       0.00000000
Si      -2.70394452      -2.71686249      -0.00571502       0.00000000
Si      -2.70376533       2.71865439       0.02029696       0.00000000
Si      -2.69912268      -0.00068418      -2.72381079       0.00000000
Si       2.72455137      -2.69974170       0.02760525       0.00000000
