10
Lattice="16.28999089631971 0.0 0.0 0.0 16.28999089631971 0.0 0.0 0.0 34.63643526849801" Properties=species:S:1:pos:R:3:initial_magmoms:R:1 pbc="T T T"
Si      -1.28904399       1.31910719       1.44686516       0.00000000
Si       2.01924324       0.59208448      -1.13507368       0.00000000
Si      -1.79025471      -0.77731319      -1.38348533       0.00000000
Si       1.39745394      -1.41946077       1.41471213       0.00000000
Si      -2.64028320       2.67098170       0.11599056       0.00000000
Si       2.68596036       2.64411949       0.01060568       0.00000000
Si      -2.68547166      -2.73520407      -0.18172016       0.00000000
Si      -2.65799043      -0.05485495       2.78759036       0.00000000
Si       0.05963769       2.65912258       2.79881257       0.00000000
Si       0.05403393      -2.76646458       2.79583384       0.00000000
