10
Lattice="16.28999089631971 0.0 0.0 0.0 16.28999089631971 0.0 0.0 0.0 34.63643526849801" Properties=species:S:1:pos:R:3:initial_magmoms:R:1 pbc="T T T"
Si       1.35995436      -1.35902866       1.36339476       0.00000000
Si       1.36894644       1.37396213      -1.34072520       0.00000000
Si      -1.35876519       1.36060433       1.36547295       0.00000000
Si      -1.36081773      -1.38135195      -1.37085199       0.00000000
Si       0.01770723       2.72583665      -2.67159980       0.00000000
Si      -2.70855459       2.70834119       0.01160321       0.00000000
Si       2.71202436      -2.71160964       0.00824348       0.00000000
Si      -2.71138905      -2.71566585       0.00464128       0.00000000
Si       2.71762812       2.71397753       0.01122221       0.00000000
Si       0.00037467      -2.71384137       2.72020860       0.00000000
