10
Lattice="16.28999089631971 0.0 0.0 0.0 16.28999089631971 0.0 0.0 0.0 34.63643526849801" Properties=species:S:1:pos:R:3:initial_magmoms:R:1 pbc="T T T"
Si       2.30933556       0.13121595       0.40718616       0.00000000
Si      -1.31331609      -1.28225106       1.49774957       0.00000000
Si      -0.23234427      -1.03821057      -2.12667831       0.00000000
Si      -0.38978712       2.39489064      -0.27348945       0.00000000
Si       2.85988869       1.11786867      -1.64578578       0.00000000
Si      -1.26804618       0.31415265       3.26396630       0.00000000
Si       2.02427685      -0.68810589      -2.91282192       0.00000000
Si      -3.48350247      -1.00813923       0.47105578       0.00000000
Si       2.44973907       1.42110702       2.38956900       0.00000000
Si       1.31763294       2.91317328      -1.87968576       0.00000000
