10
Lattice="16.28999089631971 0.0 0.0 0.0 16.28999089631971 0.0 0.0 0.0 34.63643526849801" Properties=species:S:1:pos:R:3:initial_magmoms:R:1 pbc="T T T"
Si      -1.35571896       1.35254241       1.36027748       0.00000000
Si      -1.36466217      -1.37350764      -1.34877472       0.00000000
Si       1.36179513      -1.36453185       1.36086630       0.00000000
Si       1.38175038       1.36485765      -1.35528291       0.00000000
Si       0.02016702      -2.70980892      -2.67329699       0.00000000
Si      -2.70808218       2.70964602       0.00204355       0.00000000
Si       2.71555929       2.71075374       0.00775857       0.00000000
Si       0.00311139       2.71081890       2.71840750       0.00000000
Si      -2.71186146      -0.00465894       2.71851141       0.00000000
Si      -2.70609480      -2.72730438       0.00990603       0.00000000
