10
Lattice="16.28999089631971 0.0 0.0 0.0 16.28999089631971 0.0 0.0 0.0 34.63643526849801" Properties=species:S:1:pos:R:3:initial_magmoms:R:1 pbc="T T T"
Si       1.79894705       1.17765297      -0.76404555       0.00000000
Si      -1.74273419       0.14097366      -1.57550841       0.00000000
Si      -1.35723134       1.15478181       1.56754203       0.00000000
Si       1.19901242      -2.07681862       0.25495894       0.00000000
Si      -2.67396833      -1.69822435      -0.40174824       0.00000000
Si      -2.69815898      -0.76528791       1.84380239       0.00000000
Si       3.34364630       0.65436930       0.97117155       0.00000000
Si       1.99897196      -2.29356358      -2.01750421       0.00000000
Si       2.42751299       0.12326643      -2.76766054       0.00000000
Si      -2.28173771       2.45856825      -1.59119873       0.00000000
