10
Lattice="16.28999089631971 0.0 0.0 0.0 16.28999089631971 0.0 0.0 0.0 34.63643526849801" Properties=species:S:1:pos:R:3:initial_magmoms:R:1 pbc="T T T"
Si       1.35796698       1.35676152      -1.35681384       0.00000000
Si      -1.35764118       1.35695700       1.35771438       0.00000000
Si       1.35760860      -1.35827649       1.35726411       0.00000000
Si      -1.35883035      -1.35827649      -1.35813002       0.00000000
Si       2.71244790      -0.00006516      -2.71064894       0.00000000
Si      -2.71119357      -0.00117288      -2.71636395       0.00000000
Si      -2.71443528       2.71441899      -0.00017318       0.00000000
Si      -0.00311139      -2.71081890      -2.71840750       0.00000000
Si       2.71497285       2.71432125       0.00038100       0.00000000
Si       2.71516833      -2.71487511      -0.00017318       0.00000000
