10
Lattice="16.28999089631971 0.0 0.0 0.0 16.28999089631971 0.0 0.0 0.0 34.63643526849801" Properties=species:S:1:pos:R:3:initial_magmoms:R:1 pbc="T T T"
Si      -0.79995955       0.21674497       2.27246315       0.00000000
Si       0.32257458      -2.17902600      -1.04768348       0.00000000
Si       2.44177326      -0.11884842      -0.21041646       0.00000000
Si      -1.67118947       0.46435460      -1.75288170       0.00000000
Si       0.42854103       2.41683001      -0.75015633       0.00000000
Si       2.35392129      -1.53239445      -2.13163133       0.00000000
Si       2.75677299       2.19018724      -0.48979410       0.00000000
Si      -3.10126481      -1.38180969      -1.16080614       0.00000000
Si      -1.99897196       2.29356358       2.01750421       0.00000000
Si      -0.20002491       3.47121655       1.25345866       0.00000000
