10
Lattice="16.28999089631971 0.0 0.0 0.0 16.28999089631971 0.0 0.0 0.0 34.63643526849801" Properties=species:S:1:pos:R:3:initial_magmoms:R:1 pbc="T T T"
Si       0.70033968      -1.81467342       1.33623978       0.00000000
Si       1.88102259       1.46305377      -0.16809071       0.00000000
Si      -0.50753124      -0.71161236      -2.23560996       0.00000000
Si      -1.68902865       0.93170655       1.45234118       0.00000000
Si      -0.40868352       0.91450431       3.43808376       0.00000000
Si       1.32776532      -0.77336775       3.53305692       0.00000000
Si      -2.39332680       0.48917241      -2.98368811       0.00000000
Si       1.32652728       3.40656480      -1.49719539       0.00000000
Si       3.82876902       0.28233828      -1.04747566       0.00000000
Si       2.56345956       2.33061030       1.99211569       0.00000000
