10
Lattice="16.28999089631971 0.0 0.0 0.0 16.28999089631971 0.0 0.0 0.0 34.63643526849801" Properties=species:S:1:pos:R:3:initial_magmoms:R:1 pbc="T T T"
Si      -1.88102259      -1.46305377       0.16809071       0.00000000
Si      -0.55449531       1.94351103      -1.32910467       0.00000000
Si       0.68243697       0.86755653       2.16020640       0.00000000
Si       1.94774643      -1.18071549      -0.87938495       0.00000000
Si       2.35794492       2.47080204       1.48995637       0.00000000
Si      -1.18068291      -3.27772719       1.50433050       0.00000000
Si      -2.38855383      -2.17466613      -2.06751925       0.00000000
Si      -1.05531507       3.76054650       0.16611644       0.00000000
Si       3.63182292       0.47708523      -1.39068829       0.00000000
Si       2.54800035      -2.96650674       0.55071963       0.00000000
