10
Lattice="16.28999089631971 0.0 0.0 0.0 16.28999089631971 0.0 0.0 0.0 34.63643526849801" Properties=species:S:1:pos:R:3:initial_magmoms:R:1 pbc="T T T"
Si      -1.35355239       1.35612621      -1.35861493       0.00000000
Si      -1.35594702      -1.35731538       1.35667529       0.00000000
Si       1.35821133       1.35795069       1.35695238       0.00000000
Si       1.35923760      -1.35811359      -1.36408749       0.00000000
Si      -0.00298107       2.69044011      -2.73410821       0.00000000
Si      -2.71207323       2.71487914      -0.00107373       0.00000000
Si      -2.71407690      -0.00003258       2.71438968       0.00000000
Si       0.00136836       2.71490378       2.71393940       0.00000000
Si       0.00084708      -2.71477737       2.71456286       0.00000000
Si      -2.71467963      -2.71469592      -0.00051955       0.00000000
