10
Lattice="16.28999089631971 0.0 0.0 0.0 16.28999089631971 0.0 0.0 0.0 34.63643526849801" Properties=species:S:1:pos:R:3:initial_magmoms:R:1 pbc="T T T"
Si       1.35646830       1.35625653      -1.35809539       0.00000000
Si      -1.35843939      -1.35928647      -1.35761048       0.00000000
Si      -1.36091547       1.35856971       1.35930766       0.00000000
Si       1.35627282      -1.36140417       1.36176685       0.00000000
Si      -0.00192222       2.72241738       2.69814518       0.00000000
Si      -2.71541268       2.71179630      -0.00096982       0.00000000
Si      -0.00107514       2.71344159      -2.71522095       0.00000000
Si       2.71417464      -0.00192222      -2.71494386       0.00000000
Si       2.71375110       2.71557558      -0.00138546       0.00000000
Si      -2.71523349      -0.00182448      -2.71549804       0.00000000
