10
Lattice="16.28999089631971 0.0 0.0 0.0 16.28999089631971 0.0 0.0 0.0 34.63643526849801" Properties=species:S:1:pos:R:3:initial_magmoms:R:1 pbc="T T T"
Si      -0.31455990      -2.26364211       0.33493452       0.00000000
Si      -2.12907042       0.98543816      -0.26919453       0.00000000
Si       1.91330937       0.16534350      -1.37738789       0.00000000
Si       1.06606647       0.44886250       2.06706898       0.00000000
Si       2.46218463       2.26358414      -0.54836435       0.00000000
Si       2.60258814      -1.30087053       1.84314430       0.00000000
Si      -2.42250219      -2.22918876       1.40118314       0.00000000
Si      -1.52966358       3.31484300      -0.50430678       0.00000000
Si       3.40850331      -1.38450339      -0.36548387       0.00000000
Si       2.23120872       2.44788920       1.78440087       0.00000000
