10
Lattice="16.28999089631971 0.0 0.0 0.0 16.28999089631971 0.0 0.0 0.0 34.63643526849801" Properties=species:S:1:pos:R:3:initial_magmoms:R:1 pbc="T T T"
Si      -1.61165115      -1.15745337      -1.26409205       0.00000000
Si       2.10794229      -0.03445335      -1.06624862       0.00000000
Si      -1.01175561       2.18144277       0.15714559       0.00000000
Si       0.03893310      -1.62383607       1.79562308       0.00000000
Si      -3.26510244      -1.02289797       0.39835386       0.00000000
Si       0.89031366      -3.41844021       0.37265362       0.00000000
Si       2.42250219       2.22918876      -1.40118314       0.00000000
Si       0.29343177       3.21462692      -1.67037766       0.00000000
Si       0.07853409       2.92648777       2.16117622       0.00000000
Si      -0.97658550      -3.42197514      -1.10795091       0.00000000
