10
Lattice="16.28999089631971 0.0 0.0 0.0 16.28999089631971 0.0 0.0 0.0 34.63643526849801" Properties=species:S:1:pos:R:3:initial_magmoms:R:1 pbc="T T T"
Si       1.74894327       1.08444159      -1.07213682       0.00000000
Si      -1.12122441      -0.28007397      -2.08251683       0.00000000
Si      -0.50081976       1.81703547       1.49522111       0.00000000
Si       0.55449531      -1.94351103       1.32910467       0.00000000
Si       3.52740402       0.71768853       0.50229786       0.00000000
Si      -3.38812452      -0.58011948      -1.57339559       0.00000000
Si       1.10558601       3.39993477      -1.32449802       0.00000000
Si       1.23693228      -1.07595450       3.48931108       0.00000000
Si       1.58192190       2.51234154       2.49521019       0.00000000
Si      -1.82951361       1.11283506       3.29978040       0.00000000
