10
Lattice="16.28999089631971 0.0 0.0 0.0 16.28999089631971 0.0 0.0 0.0 34.63643526849801" Properties=species:S:1:pos:R:3:initial_magmoms:R:1 pbc="T T T"
Si      -1.11636999      -1.71846861       1.21040139       0.00000000
Si       1.74180566       1.17245972       1.18944287       0.00000000
Si      -1.78825104       1.77036788       0.03634784       0.00000000
Si       1.62731303      -1.20600150      -1.50008965       0.00000000
Si      -1.58845419       0.02936924      -2.62632861       0.00000000
Si      -2.41004034      -0.24117738       2.58613366       0.00000000
Si       0.32623337       2.50156082       2.58778928       0.00000000
Si      -0.02135619      -1.72474026      -3.19519774       0.00000000
Si      -2.52200151      -2.91456186      -0.37869979       0.00000000
Si       0.31476591      -2.94837990       2.61716446       0.00000000
