10
Lattice="16.28999089631971 0.0 0.0 0.0 16.28999089631971 0.0 0.0 0.0 34.63643526849801" Properties=species:S:1:pos:R:3:initial_magmoms:R:1 pbc="T T T"
Si      -2.11338315       0.91797408       0.48331709       0.00000000
Si       1.34092764       1.92006972      -0.27626036       0.00000000
Si       0.39014550      -1.43842818       1.90341173       0.00000000
Si       0.02419065      -0.93293644      -2.24555063       0.00000000
Si      -1.85034852      -2.16737540       1.58967472       0.00000000
Si       2.69815898       0.76528791      -1.84380239       0.00000000
Si      -2.21092767      -1.40210473      -2.27876699       0.00000000
Si      -3.15312498       0.64026216      -1.60013493       0.00000000
Si       0.95542479       0.90626157      -3.41931080       0.00000000
Si      -1.88055018       3.22014204       0.98876687       0.00000000
