10
Lattice="16.28999089631971 0.0 0.0 0.0 16.28999089631971 0.0 0.0 0.0 34.63643526849801" Properties=species:S:1:pos:R:3:initial_magmoms:R:1 pbc="T T T"
Si       1.05490782       1.62538362      -1.31347432       0.00000000
Si      -1.28490633       1.36596537       1.43097049       0.00000000
Si       1.44776729      -1.32084207       1.40576207       0.00000000
Si      -0.66671712      -2.05203501      -1.14567936       0.00000000
Si      -0.68952312       3.35868849      -1.21285365       0.00000000
Si      -2.57360823       2.72759760       0.07209232       0.00000000
Si      -2.68596036      -2.64411949      -0.01060568       0.00000000
Si      -2.62632267       0.01500309       2.78820689       0.00000000
Si       2.74431833       2.67693570      -0.02400306       0.00000000
Si       0.08767278      -2.69773803       2.77871650       0.00000000
