10
Lattice="16.28999089631971 0.0 0.0 0.0 16.28999089631971 0.0 0.0 0.0 34.63643526849801" Properties=species:S:1:pos:R:3:initial_magmoms:R:1 pbc="T T T"
Si      -1.35614250      -1.35615879      -1.35754120       0.00000000
Si       1.35728280      -1.35742941       1.35944621       0.00000000
Si       1.35840681       1.35904212      -1.35716020       0.00000000
Si      -1.35633798       1.36195803       1.35767975       0.00000000
Si      -0.00066789      -2.70797955       2.71497850       0.00000000
Si       0.00078192      -2.71342856      -2.71445895       0.00000000
Si       2.71469592      -2.71354748      -0.00006927       0.00000000
Si      -2.71334385      -2.71527747       0.00045027       0.00000000
Si      -2.71433754       0.00060273      -2.71428577       0.00000000
Si      -2.71404432       2.71511946      -0.00045027       0.00000000
