10
Lattice="16.28999089631971 0.0 0.0 0.0 16.28999089631971 0.0 0.0 0.0 34.63643526849801" Properties=species:S:1:pos:R:3:initial_magmoms:R:1 pbc="T T T"
Si      -1.70165340      -0.72057186      -1.52351909       0.00000000
Si       0.22612149      -2.37592908       0.33351442       0.00000000
Si       2.07321201       0.91051326      -0.85396179       0.00000000
Si      -1.57986936       1.41517746       1.31479982       0.00000000
Si      -3.37706361       0.02906136       0.58937391       0.00000000
Si       1.83697443       3.08454408       0.03411691       0.00000000
Si      -0.30885840      -2.64992688       2.61958970       0.00000000
Si       0.54625257      -2.36869632      -2.97956637       0.00000000
Si      -1.01550231       0.95135229       3.65272587       0.00000000
Si       2.56999185      -2.96613207       0.17110409       0.00000000
