10
Lattice="16.28999089631971 0.0 0.0 0.0 16.28999089631971 0.0 0.0 0.0 34.63643526849801" Properties=species:S:1:pos:R:3:initial_magmoms:R:1 pbc="T T T"
Si      -0.55055313      -0.98665272       2.05297194       0.00000000
Si      -0.83561184      -1.80597456      -1.26703615       0.00000000
Si      -1.54225575       1.79530461      -0.23389998       0.00000000
Si       2.39606352      -0.08762391      -0.24477582       0.00000000
Si       0.89961525      -3.20733810      -0.52495011       0.00000000
Si      -2.85988869      -1.11786867       1.64578578       0.00000000
Si      -0.09912465       3.56399136       0.28135192       0.00000000
Si       0.66863934      -3.02303304       1.80781511       0.00000000
Si      -3.24967581       1.27702197       1.37229633       0.00000000
Si       2.75175567      -2.10378834      -1.45067863       0.00000000
