10
Lattice="16.28999089631971 0.0 0.0 0.0 16.28999089631971 0.0 0.0 0.0 34.63643526849801" Properties=species:S:1:pos:R:3:initial_magmoms:R:1 pbc="T T T"
Si      -1.73804526      -0.91957050      -1.26712738       0.00000000
Si       1.31641119      -1.37963268       1.42458006       0.00000000
Si       1.19035917       1.38188070      -1.54720493       0.00000000
Si      -1.39266468       1.36489023       1.40663145       0.00000000
Si       2.59599069       2.57797395       0.04189626       0.00000000
Si      -2.69695611      -2.67677280       0.06038173       0.00000000
Si       2.67980274      -0.00965997       2.79168439       0.00000000
Si       2.62324386      -2.85715197       0.07416704       0.00000000
Si      -0.04109967       2.70826137       2.79875022       0.00000000
Si      -0.04002453      -2.72372058       2.79996250       0.00000000
