10
Lattice="16.28999089631971 0.0 0.0 0.0 16.28999089631971 0.0 0.0 0.0 34.63643526849801" Properties=species:S:1:pos:R:3:initial_magmoms:R:1 pbc="T T T"
Si      -1.35003768      -1.36239786      -1.38320682       0.00000000
Si       1.36104905       1.35953082      -1.38292972       0.00000000
Si       1.39358018      -1.22329755       1.50706678       0.00000000
Si      -1.42172997       1.37815029       1.41361762       0.00000000
Si      -2.68710459      -2.71919196      -0.00917866       0.00000000
Si       2.71388468      -2.70102861      -0.00419101       0.00000000
Si      -2.70805353       2.71857294      -0.03096499       0.00000000
Si       2.71720784       2.71243161      -0.02424552       0.00000000
Si      -2.70805353      -0.00087966      -2.74244520       0.00000000
Si       0.00697864       2.71523349      -2.74223739       0.00000000
