10
Lattice="16.28999089631971 0.0 0.0 0.0 16.28999089631971 0.0 0.0 0.0 34.63643526849801" Properties=species:S:1:pos:R:3:initial_magmoms:R:1 pbc="T T T"
Si      -1.97763858      -1.20572064      -0.43305959       0.00000000
Si      -0.83826711       0.38669202       2.21773755       0.00000000
Si      -0.85757076       2.26395162       0.00716975       0.00000000
Si       2.19513356      -1.05639021       0.19254405       0.00000000
Si      -1.91430306      -1.63797579       1.88775605       0.00000000
Si       1.22159266       3.43989414      -0.03311245       0.00000000
Si      -2.13112296       2.31994035       2.04334300       0.00000000
Si       1.60536225      -3.27718962       0.94408584       0.00000000
Si       1.27237836      -0.33125715      -3.54750032       0.00000000
Si      -2.38658274       2.29130253      -1.84345602       0.00000000
