10
Lattice="16.28999089631971 0.0 0.0 0.0 16.28999089631971 0.0 0.0 0.0 34.63643526849801" Properties=species:S:1:pos:R:3:initial_magmoms:R:1 pbc="T T T"
Si       1.74763911      -0.23436423       1.45660146       0.00000000
Si      -1.07603595      -2.02466781      -0.32998150       0.00000000
Si      -1.29285585       1.93324833      -0.17439455       0.00000000
Si       0.83826711      -0.38669202      -2.21773755       0.00000000
Si      -0.01930365       1.87725960      -2.21056781       0.00000000
Si      -1.13937147      -1.59241266      -2.65079715       0.00000000
Si      -2.54871711      -1.95691770       1.48306371       0.00000000
Si       0.67808754      -3.49889652       0.23964963       0.00000000
Si       0.99940779       0.78726312       3.42062699       0.00000000
Si       1.87642785      -2.53488690       2.00624736       0.00000000
