10
Lattice="16.28999089631971 0.0 0.0 0.0 16.28999089631971 0.0 0.0 0.0 34.63643526849801" Properties=species:S:1:pos:R:3:initial_magmoms:R:1 pbc="T T T"
Si      -1.08220986      -0.03293838      -2.09883060       0.00000000
Si       0.26366994       2.29431618       0.49717167       0.00000000
Si      -1.67870079      -0.86183874       1.44984735       0.00000000
Si       2.24850870      -0.64407402       0.51220389       0.00000000
Si      -2.09650671       2.07148527      -1.79032370       0.00000000
Si       0.37831896       2.18276226       2.86097115       0.00000000
Si      -1.30575753       0.52496154       3.37227450       0.00000000
Si       2.46591504       2.71124244      -0.16126733       0.00000000
Si       3.34293510      -0.61090758      -1.57564696       0.00000000
Si       3.30437993       1.27374768       1.47461242       0.00000000
