10
Lattice="16.28999089631971 0.0 0.0 0.0 16.28999089631971 0.0 0.0 0.0 34.63643526849801" Properties=species:S:1:pos:R:3:initial_magmoms:R:1 pbc="T T T"
Si      -1.35151614       1.35675500       1.36117803       0.00000000
Si      -1.36096434      -1.35582618      -1.35729528       0.00000000
Si       1.36500426      -1.35986629       1.36034676       0.00000000
Si       1.36617714       1.37998454      -1.36779013       0.00000000
Si       2.65178394      -0.06534082      -2.69863355       0.00000000
Si      -2.70930556       2.70755438       0.00187037       0.00000000
Si      -2.64778637       0.04607789      -2.77140474       0.00000000
Si      -2.70880871      -2.71363448       0.00270164       0.00000000
Si      -2.70900256      -0.00225617       2.71816505       0.00000000
Si       0.00555489       2.71235993       2.71819969       0.00000000
