10
Lattice="16.28999089631971 0.0 0.0 0.0 16.28999089631971 0.0 0.0 0.0 34.63643526849801" Properties=species:S:1:pos:R:3:initial_magmoms:R:1 pbc="T T T"
Si       1.18259766      -0.18515214      -2.03939445       0.00000000
Si       0.01891269       1.96758765       1.31576964       0.00000000
Si       2.00548538      -0.91171872       0.97182964       0.00000000
Si      -2.30322681      -0.97968060      -0.16480025       0.00000000
Si       2.38237082       1.85556132       0.95329914       0.00000000
Si       0.83630321      -2.48033169      -2.33023676       0.00000000
Si       1.85390693      -3.20601861      -0.30781417       0.00000000
Si       0.30852789       1.47662334      -3.45612935       0.00000000
Si       0.49364469       1.30771233       3.50416704       0.00000000
Si      -2.09228760      -3.06854730       0.92874189       0.00000000
