10
Lattice="16.28999089631971 0.0 0.0 0.0 16.28999089631971 0.0 0.0 0.0 34.63643526849801" Properties=species:S:1:pos:R:3:initial_magmoms:R:1 pbc="T T T"
Si      -1.34342001      -1.34700381       1.38112170       0.00000000
Si       1.37617920       1.36584224       1.37461005       0.00000000
Si       1.29367035      -1.47729123      -1.37573227       0.00000000
Si      -1.39745394       1.41946077      -1.41471213       0.00000000
Si       0.62178930       2.01154526      -2.54978581       0.00000000
Si       2.41004034       0.24117738      -2.58613366       0.00000000
Si      -2.69498502      -2.69037495      -0.01099707       0.00000000
Si      -2.68649793       2.73856796       0.03215302       0.00000000
Si      -2.69549001       0.00557716       2.73627299       0.00000000
Si       2.72480625      -2.70720252       0.03103080       0.00000000
