10
Lattice="16.28999089631971 0.0 0.0 0.0 16.28999089631971 0.0 0.0 0.0 34.63643526849801" Properties=species:S:1:pos:R:3:initial_magmoms:R:1 pbc="T T T"
Si      -1.35742941      -1.34631963      -1.37891190       0.00000000
Si       1.35972014       1.36944008      -1.37880799       0.00000000
Si      -1.41543810       1.35891180       1.37922362       0.00000000
Si       1.33524243      -1.31662296       1.53671558       0.00000000
Si       2.71855732      -2.69216685       0.00034636       0.00000000
Si      -2.71213839      -2.70360243      -0.00308264       0.00000000
Si       2.70231782       2.72070108      -0.00017318       0.00000000
Si      -2.71557558       2.72998801      -0.02563098       0.00000000
Si       0.00162900      -2.70697446      -2.74012456       0.00000000
Si      -2.71438641       0.01197315      -2.74130220       0.00000000
