10
Lattice="16.28999089631971 0.0 0.0 0.0 16.28999089631971 0.0 0.0 0.0 34.63643526849801" Properties=species:S:1:pos:R:3:initial_magmoms:R:1 pbc="T T T"
Si      -1.20151782      -1.99627434       0.41518718       0.00000000
Si       1.52901198      -0.02735091       1.85062577       0.00000000
Si      -1.69360614       1.76039514       0.33770543       0.00000000
Si       1.70096922      -0.75917916      -1.62524636       0.00000000
Si       0.01570356      -1.70566074      -2.99349023       0.00000000
Si      -3.04090317      -1.25157699       1.85613297       0.00000000
Si       2.38658274      -2.29130253       1.84345602       0.00000000
Si       0.40894416      -3.49702317       1.41039643       0.00000000
Si      -1.97400591       2.80486107      -1.78824552       0.00000000
Si       0.25545978       0.02863782       3.88679903       0.00000000
