10
Lattice="16.28999089631971 0.0 0.0 0.0 16.28999089631971 0.0 0.0 0.0 34.63643526849801" Properties=species:S:1:pos:R:3:initial_magmoms:R:1 pbc="T T T"
Si      -0.68919732      -1.98040788      -1.03403672       0.00000000
Si      -0.80591517       0.08363286       2.20862817       0.00000000
Si      -1.49519394       1.54984689      -1.01190402       0.00000000
Si       2.34491522       0.05636340       0.44989291       0.00000000
Si      -3.40850331       1.38450339       0.36548387       0.00000000
Si       0.58435488      -2.03639661      -3.07020997       0.00000000
Si       2.48756186      -0.96132177       2.61003004       0.00000000
Si      -2.16683064      -1.88297739       2.44457169       0.00000000
Si      -0.94631868       3.64808753      -0.18288048       0.00000000
Si       1.00563057       0.48837420       3.65764424       0.00000000
