10
Lattice="16.28999089631971 0.0 0.0 0.0 16.28999089631971 0.0 0.0 0.0 34.63643526849801" Properties=species:S:1:pos:R:3:initial_magmoms:R:1 pbc="T T T"
Si      -1.56709800       1.75410950       0.56886913       0.00000000
Si       1.64866922       0.51873876       1.69510809       0.00000000
Si      -1.49666004      -1.83459609       0.58504436       0.00000000
Si       0.76240688      -0.12422754      -2.45305763       0.00000000
Si       0.02135619       1.72474026       3.19519774       0.00000000
Si       0.11530062      -3.60797436       1.08619922       0.00000000
Si      -2.50064532      -1.18982160       2.81649794       0.00000000
Si      -3.80759202       1.02516228       0.25513212       0.00000000
Si      -3.12541569      -1.86707835      -1.55043162       0.00000000
Si      -1.95724350       3.19253768      -1.33454260       0.00000000
