10
Lattice="16.28999089631971 0.0 0.0 0.0 16.28999089631971 0.0 0.0 0.0 34.63643526849801" Properties=species:S:1:pos:R:3:initial_magmoms:R:1 pbc="T T T"
Si       2.02733937       0.06758721      -1.28089073       0.00000000
Si      -0.07824087       1.46929284       1.91006193       0.00000000
Si      -1.72520059       1.19674485      -1.23478961       0.00000000
Si       0.06434550      -2.26574352       1.01276993       0.00000000
Si      -0.67593726      -1.72952559       3.17439643       0.00000000
Si      -3.49074242       1.36172997       0.27851173       0.00000000
Si       0.71899173       0.14460633       3.68753551       0.00000000
Si      -2.29240210       2.32573959       2.04510946       0.00000000
Si       1.24480035       3.35860704       1.56082255       0.00000000
Si      -1.70336711      -3.66726996       0.23296479       0.00000000
