10
Lattice="16.28999089631971 0.0 0.0 0.0 16.28999089631971 0.0 0.0 0.0 34.63643526849801" Properties=species:S:1:pos:R:3:initial_magmoms:R:1 pbc="T T T"
Si      -0.79723260       1.32468651      -1.77747358       0.00000000
Si      -0.20194713       0.91008972       2.16865770       0.00000000
Si       2.31767604      -0.56299869      -0.17657665       0.00000000
Si      -1.39492899      -1.87413192      -0.51313908       0.00000000
Si      -2.18893454      -0.11147247       2.78137658       0.00000000
Si      -0.65464623      -2.41034985      -2.67476557       0.00000000
Si       1.53865566      -0.09751194       3.36915721       0.00000000
Si      -0.95604381      -3.37330062       1.27926282       0.00000000
Si      -0.71899173      -0.14460633      -3.68753551       0.00000000
Si       3.36963537       0.15612336       1.90441618       0.00000000
