10
Lattice="16.28999089631971 0.0 0.0 0.0 16.28999089631971 0.0 0.0 0.0 34.63643526849801" Properties=species:S:1:pos:R:3:initial_magmoms:R:1 pbc="T T T"
Si      -1.32377427       1.36335897       1.43446877       0.00000000
Si       1.38657222      -1.38499209       1.42297639       0.00000000
Si       1.35158130       1.35601218      -1.51131810       0.00000000
Si      -1.91508498      -0.89083494      -1.22953630       0.00000000
Si       2.05131825      -0.45756981      -2.96196209       0.00000000
Si      -2.67975387      -0.00967626       2.80252906       0.00000000
Si      -2.71578898       2.77252542       0.04123816       0.00000000
Si       0.03319902       2.70420516       2.80287543       0.00000000
Si      -2.73815352      -2.77794999      -0.00219941       0.00000000
Si       2.74022235       2.78006769      -0.09872429       0.00000000
