10
Lattice="16.28999089631971 0.0 0.0 0.0 16.28999089631971 0.0 0.0 0.0 34.63643526849801" Properties=species:S:1:pos:R:3:initial_magmoms:R:1 pbc="T T T"
Si      -1.65779325      -1.16100459       1.16327329       0.00000000
Si      -0.47473200       0.65987532      -2.18839740       0.00000000
Si       1.07647252       1.75241304       1.12206284       0.00000000
Si       1.87717652      -1.91094732      -0.14871162       0.00000000
Si       1.88872613       0.54784899      -2.55086790       0.00000000
Si      -0.23825814      -2.40314967       2.53226877       0.00000000
Si       2.46848723       0.34324659       2.51529345       0.00000000
Si       1.51184069      -2.21943105      -2.53233739       0.00000000
Si      -0.49364469      -1.30771233      -3.50416704       0.00000000
Si      -2.96462592       0.31651470       2.51368632       0.00000000
